Network_13R-103/scenario_86/case.raw
0,100.0,33,0,0,60.0
GRID OPTIMIZATION COMPETITION
INPUT DATA FILES ARE RAW ROP INL CON
1,'            ',115.0,1,1,1,1,1.0492283,73.923852,1.1,0.9,1.1,0.9
2,'            ',115.0,1,1,1,1,1.0491182,72.744685,1.1,0.9,1.1,0.9
3,'            ',115.0,1,1,1,1,1.0419913,80.565837,1.1,0.9,1.1,0.9
4,'            ',115.0,1,1,1,1,1.0440955,70.481031,1.1,0.9,1.1,0.9
5,'            ',115.0,1,1,1,1,1.0441209,70.484111,1.1,0.9,1.1,0.9
6,'            ',115.0,1,1,1,1,1.0421109,86.823072,1.1,0.9,1.1,0.9
7,'            ',115.0,1,1,1,1,1.0436901,86.917481,1.1,0.9,1.1,0.9
8,'            ',115.0,1,1,1,1,1.0492463,64.598598,1.1,0.9,1.1,0.9
9,'            ',115.0,1,1,1,1,1.0482139,65.080526,1.1,0.9,1.1,0.9
10,'            ',115.0,1,1,1,1,1.0465672,74.349483,1.1,0.9,1.1,0.9
11,'            ',115.0,1,1,1,1,1.0518545,77.115255,1.1,0.9,1.1,0.9
12,'            ',230.0,1,1,1,1,1.0455813,79.56569,1.1,0.9,1.1,0.9
13,'            ',115.0,1,1,1,1,1.0538836,78.399228,1.1,0.9,1.1,0.9
14,'            ',230.0,1,1,1,1,1.0455038,79.5582,1.1,0.9,1.1,0.9
15,'            ',230.0,1,1,1,1,1.045786,79.593066,1.1,0.9,1.1,0.9
16,'            ',230.0,1,1,1,1,1.0575101,64.356259,1.1,0.9,1.1,0.9
17,'            ',115.0,1,1,1,1,1.058949,63.789862,1.1,0.9,1.1,0.9
18,'            ',230.0,1,1,1,1,1.0574425,64.346285,1.1,0.9,1.1,0.9
19,'            ',230.0,1,1,1,1,1.0575719,64.379936,1.1,0.9,1.1,0.9
20,'            ',230.0,1,1,1,1,1.0473652,67.650854,1.1,0.9,1.1,0.9
21,'            ',115.0,1,1,1,1,1.0582313,66.499986,1.1,0.9,1.1,0.9
22,'            ',230.0,1,1,1,1,1.0478669,67.678824,1.1,0.9,1.1,0.9
23,'            ',230.0,1,1,1,1,1.0473652,67.650854,1.1,0.9,1.1,0.9
24,'            ',115.0,1,1,1,1,1.0393738,79.807093,1.1,0.9,1.1,0.9
25,'            ',115.0,1,1,1,1,1.0412555,79.687848,1.1,0.9,1.1,0.9
26,'            ',115.0,1,1,1,1,1.0438106,88.719431,1.1,0.9,1.1,0.9
27,'            ',500.0,1,1,1,1,1.0425,79.746113,1.1,0.9,1.1,0.9
28,'            ',230.0,1,1,1,1,1.047918,81.252987,1.1,0.9,1.1,0.9
29,'            ',115.0,1,1,1,1,1.0507691,80.553412,1.1,0.9,1.1,0.9
30,'            ',500.0,1,1,1,1,1.0422121,79.722519,1.1,0.9,1.1,0.9
31,'            ',230.0,1,1,1,1,1.0475526,81.500144,1.1,0.9,1.1,0.9
32,'            ',115.0,1,1,1,1,1.039526,79.973186,1.1,0.9,1.1,0.9
33,'            ',115.0,1,1,1,1,1.0393799,79.954365,1.1,0.9,1.1,0.9
34,'            ',115.0,1,1,1,1,1.0427557,63.551336,1.1,0.9,1.1,0.9
35,'            ',115.0,1,1,1,1,1.0537115,67.850998,1.1,0.9,1.1,0.9
36,'            ',115.0,1,1,1,1,1.0536634,67.846028,1.1,0.9,1.1,0.9
37,'            ',230.0,1,1,1,1,1.0496913,69.390502,1.1,0.9,1.1,0.9
38,'            ',115.0,1,1,1,1,1.060306,67.924801,1.1,0.9,1.1,0.9
39,'            ',230.0,1,1,1,1,1.04952,69.378924,1.1,0.9,1.1,0.9
40,'            ',115.0,1,1,1,1,1.0439927,78.945325,1.1,0.9,1.1,0.9
41,'            ',115.0,1,1,1,1,1.0399329,79.973213,1.1,0.9,1.1,0.9
42,'            ',115.0,1,1,1,1,1.0438017,79.184118,1.1,0.9,1.1,0.9
43,'            ',115.0,1,1,1,1,1.0409968,80.146059,1.1,0.9,1.1,0.9
44,'            ',115.0,1,1,1,1,1.0466818,80.36969,1.1,0.9,1.1,0.9
45,'            ',115.0,1,1,1,1,1.0443095,80.349407,1.1,0.9,1.1,0.9
46,'            ',115.0,1,1,1,1,1.0511712,65.207244,1.1,0.9,1.1,0.9
47,'            ',115.0,1,1,1,1,1.0355,69.512673,1.1,0.9,1.1,0.9
48,'            ',115.0,1,1,1,1,1.0351068,70.143265,1.1,0.9,1.1,0.9
49,'            ',115.0,1,1,1,1,1.0355,85.436672,1.1,0.9,1.1,0.9
50,'            ',115.0,1,1,1,1,1.0355291,85.4372,1.1,0.9,1.1,0.9
51,'            ',115.0,1,1,1,1,1.0482333,78.683574,1.1,0.9,1.1,0.9
52,'            ',115.0,1,1,1,1,1.0516118,78.902305,1.1,0.9,1.1,0.9
53,'            ',115.0,1,1,1,1,1.0517341,78.914748,1.1,0.9,1.1,0.9
54,'            ',115.0,1,1,1,1,1.0471361,78.717504,1.1,0.9,1.1,0.9
55,'            ',115.0,1,1,1,1,1.047045,78.7048,1.1,0.9,1.1,0.9
56,'            ',115.0,1,1,1,1,1.0472576,63.378681,1.1,0.9,1.1,0.9
57,'            ',115.0,1,1,1,1,1.047224,63.374159,1.1,0.9,1.1,0.9
58,'            ',115.0,1,1,1,1,1.05028,78.892972,1.1,0.9,1.1,0.9
59,'            ',115.0,1,1,1,1,1.0522636,78.929796,1.1,0.9,1.1,0.9
60,'            ',115.0,1,1,1,1,1.0484271,79.392869,1.1,0.9,1.1,0.9
61,'            ',115.0,1,1,1,1,1.0483896,79.387258,1.1,0.9,1.1,0.9
62,'            ',115.0,1,1,1,1,1.0417982,68.139626,1.1,0.9,1.1,0.9
63,'            ',230.0,1,1,1,1,1.0363811,80.948547,1.1,0.9,1.1,0.9
64,'            ',115.0,1,1,1,1,1.0572088,79.332521,1.1,0.9,1.1,0.9
65,'            ',230.0,1,1,1,1,1.0375369,81.00415,1.1,0.9,1.1,0.9
66,'            ',230.0,1,1,1,1,1.0361565,80.921513,1.1,0.9,1.1,0.9
67,'            ',115.0,1,1,1,1,1.0515421,79.65482,1.1,0.9,1.1,0.9
68,'            ',115.0,1,1,1,1,1.0548949,61.682193,1.1,0.9,1.1,0.9
69,'            ',115.0,1,1,1,1,1.0548366,61.67597,1.1,0.9,1.1,0.9
70,'            ',115.0,1,1,1,1,1.0555019,62.203572,1.1,0.9,1.1,0.9
71,'            ',115.0,1,1,1,1,1.0374671,73.175295,1.1,0.9,1.1,0.9
72,'            ',230.0,1,1,1,1,1.039379,75.17362,1.1,0.9,1.1,0.9
73,'            ',115.0,1,1,1,1,1.0407388,74.692035,1.1,0.9,1.1,0.9
74,'            ',230.0,1,1,1,1,1.0393437,75.16606,1.1,0.9,1.1,0.9
75,'            ',230.0,1,1,1,1,1.0398661,75.210063,1.1,0.9,1.1,0.9
76,'            ',115.0,1,1,1,1,1.0483064,78.980023,1.1,0.9,1.1,0.9
77,'            ',115.0,1,1,1,1,1.0464798,79.308076,1.1,0.9,1.1,0.9
78,'            ',115.0,1,1,1,1,1.0525426,59.924746,1.1,0.9,1.1,0.9
79,'            ',230.0,1,1,1,1,1.0399229,68.502909,1.1,0.9,1.1,0.9
80,'            ',115.0,1,1,1,1,1.0553367,67.598618,1.1,0.9,1.1,0.9
81,'            ',230.0,1,1,1,1,1.0407541,68.551279,1.1,0.9,1.1,0.9
82,'            ',230.0,1,1,1,1,1.0396971,68.466205,1.1,0.9,1.1,0.9
83,'            ',115.0,1,1,1,1,1.0435877,67.500261,1.1,0.9,1.1,0.9
84,'            ',115.0,1,1,1,1,1.0433853,67.483688,1.1,0.9,1.1,0.9
85,'            ',115.0,1,1,1,1,1.0437693,67.517238,1.1,0.9,1.1,0.9
86,'            ',115.0,1,1,1,1,1.0319848,85.607308,1.1,0.9,1.1,0.9
87,'            ',115.0,1,1,1,1,1.0417179,67.907297,1.1,0.9,1.1,0.9
88,'            ',115.0,1,1,1,1,1.0414476,67.894768,1.1,0.9,1.1,0.9
89,'            ',115.0,1,1,1,1,1.0409524,67.745861,1.1,0.9,1.1,0.9
90,'            ',115.0,1,1,1,1,1.0408072,67.733897,1.1,0.9,1.1,0.9
91,'            ',500.0,1,1,1,1,1.0443756,69.610424,1.1,0.9,1.1,0.9
92,'            ',230.0,1,1,1,1,1.0479261,69.374273,1.1,0.9,1.1,0.9
93,'            ',115.0,1,1,1,1,1.0524565,68.537796,1.1,0.9,1.1,0.9
94,'            ',500.0,1,1,1,1,1.0441351,69.585905,1.1,0.9,1.1,0.9
95,'            ',500.0,1,1,1,1,1.0467861,69.646129,1.1,0.9,1.1,0.9
96,'            ',115.0,1,1,1,1,1.0488041,62.583823,1.1,0.9,1.1,0.9
97,'            ',115.0,1,1,1,1,1.0506567,62.00832,1.1,0.9,1.1,0.9
98,'            ',115.0,1,1,1,1,1.0432733,61.066882,1.1,0.9,1.1,0.9
99,'            ',115.0,1,1,1,1,1.0487872,61.975423,1.1,0.9,1.1,0.9
100,'            ',115.0,1,1,1,1,1.0487206,61.967747,1.1,0.9,1.1,0.9
101,'            ',115.0,1,1,1,1,1.0502895,66.690219,1.1,0.9,1.1,0.9
102,'            ',115.0,1,1,1,1,1.0516386,66.724764,1.1,0.9,1.1,0.9
103,'            ',115.0,1,1,1,1,1.0515668,66.713038,1.1,0.9,1.1,0.9
104,'            ',115.0,1,1,1,1,1.0511255,64.081315,1.1,0.9,1.1,0.9
105,'            ',115.0,1,1,1,1,1.0492238,62.646043,1.1,0.9,1.1,0.9
106,'            ',115.0,1,1,1,1,1.0488561,62.624424,1.1,0.9,1.1,0.9
107,'            ',230.0,1,1,1,1,1.0297078,64.857318,1.1,0.9,1.1,0.9
108,'            ',115.0,1,1,1,1,1.0531253,63.106776,1.1,0.9,1.1,0.9
109,'            ',230.0,1,1,1,1,1.0295182,64.828235,1.1,0.9,1.1,0.9
110,'            ',230.0,1,1,1,1,1.0308082,64.920856,1.1,0.9,1.1,0.9
111,'            ',115.0,1,1,1,1,1.0503633,62.846191,1.1,0.9,1.1,0.9
112,'            ',115.0,1,1,1,1,1.050251,62.837181,1.1,0.9,1.1,0.9
113,'            ',115.0,1,1,1,1,1.0471995,62.684961,1.1,0.9,1.1,0.9
114,'            ',115.0,1,1,1,1,1.0425999,67.625692,1.1,0.9,1.1,0.9
115,'            ',230.0,1,1,1,1,1.0469466,69.518051,1.1,0.9,1.1,0.9
116,'            ',115.0,1,1,1,1,1.0551368,67.975452,1.1,0.9,1.1,0.9
117,'            ',230.0,1,1,1,1,1.0472719,69.543872,1.1,0.9,1.1,0.9
118,'            ',230.0,1,1,1,1,1.0469466,69.518051,1.1,0.9,1.1,0.9
119,'            ',115.0,1,1,1,1,1.0376603,67.942055,1.1,0.9,1.1,0.9
120,'            ',115.0,1,1,1,1,1.0353521,68.585226,1.1,0.9,1.1,0.9
121,'            ',115.0,1,1,1,1,1.0352112,68.573573,1.1,0.9,1.1,0.9
122,'            ',115.0,1,1,1,1,1.0511394,82.034184,1.1,0.9,1.1,0.9
123,'            ',115.0,1,1,1,1,1.0406984,70.910874,1.1,0.9,1.1,0.9
124,'            ',115.0,1,1,1,1,1.0545999,62.235531,1.1,0.9,1.1,0.9
125,'            ',115.0,1,1,1,1,1.0437016,62.471338,1.1,0.9,1.1,0.9
126,'            ',115.0,1,1,1,1,1.048855,66.712397,1.1,0.9,1.1,0.9
127,'            ',115.0,1,1,1,1,1.0493724,66.129033,1.1,0.9,1.1,0.9
128,'            ',115.0,1,1,1,1,1.049405,66.134438,1.1,0.9,1.1,0.9
129,'            ',115.0,1,1,1,1,1.052648,61.044239,1.1,0.9,1.1,0.9
130,'            ',230.0,1,1,1,1,1.0363755,64.393375,1.1,0.9,1.1,0.9
131,'            ',115.0,1,1,1,1,1.0576183,62.345764,1.1,0.9,1.1,0.9
132,'            ',230.0,1,1,1,1,1.0372143,64.421396,1.1,0.9,1.1,0.9
133,'            ',230.0,1,1,1,1,1.0281726,58.447672,1.1,0.9,1.1,0.9
134,'            ',115.0,1,1,1,1,1.0525769,60.376771,1.1,0.9,1.1,0.9
135,'            ',230.0,1,1,1,1,1.0280638,58.433949,1.1,0.9,1.1,0.9
136,'            ',115.0,1,1,1,1,1.0487634,61.125451,1.1,0.9,1.1,0.9
137,'            ',115.0,1,1,1,1,1.0456547,60.624975,1.1,0.9,1.1,0.9
138,'            ',115.0,1,1,1,1,1.0457319,60.631881,1.1,0.9,1.1,0.9
139,'            ',115.0,1,1,1,1,1.0435779,60.217295,1.1,0.9,1.1,0.9
140,'            ',115.0,1,1,1,1,1.0510152,62.446068,1.1,0.9,1.1,0.9
141,'            ',115.0,1,1,1,1,1.0481963,68.514762,1.1,0.9,1.1,0.9
142,'            ',115.0,1,1,1,1,1.0408959,84.662143,1.1,0.9,1.1,0.9
143,'            ',115.0,1,1,1,1,1.0432424,84.200726,1.1,0.9,1.1,0.9
144,'            ',115.0,1,1,1,1,1.0408396,82.619733,1.1,0.9,1.1,0.9
145,'            ',115.0,1,1,1,1,1.040794,82.611538,1.1,0.9,1.1,0.9
146,'            ',115.0,1,1,1,1,1.040886,82.628478,1.1,0.9,1.1,0.9
147,'            ',115.0,1,1,1,1,1.0498893,64.687491,1.1,0.9,1.1,0.9
148,'            ',115.0,1,1,1,1,1.0576573,62.567295,1.1,0.9,1.1,0.9
149,'            ',115.0,1,1,1,1,1.0577564,62.575188,1.1,0.9,1.1,0.9
150,'            ',115.0,1,1,1,1,1.0534125,61.98408,1.1,0.9,1.1,0.9
151,'            ',115.0,1,1,1,1,1.0454943,59.956756,1.1,0.9,1.1,0.9
152,'            ',115.0,1,1,1,1,1.0456139,73.145632,1.1,0.9,1.1,0.9
153,'            ',115.0,1,1,1,1,0.95093092,67.805901,1.1,0.9,1.1,0.9
154,'            ',115.0,1,1,1,1,1.0496975,63.099281,1.1,0.9,1.1,0.9
155,'            ',115.0,1,1,1,1,1.0446001,58.791715,1.1,0.9,1.1,0.9
156,'            ',115.0,1,1,1,1,1.0446429,58.795172,1.1,0.9,1.1,0.9
157,'            ',115.0,1,1,1,1,1.0542158,61.640177,1.1,0.9,1.1,0.9
158,'            ',115.0,1,1,1,1,1.0501246,67.890929,1.1,0.9,1.1,0.9
159,'            ',115.0,1,1,1,1,1.0544808,62.718205,1.1,0.9,1.1,0.9
160,'            ',230.0,1,1,1,1,1.0467966,62.511423,1.1,0.9,1.1,0.9
161,'            ',115.0,1,1,1,1,1.0532924,62.482605,1.1,0.9,1.1,0.9
162,'            ',230.0,1,1,1,1,1.046689,62.499941,1.1,0.9,1.1,0.9
163,'            ',230.0,1,1,1,1,1.0469115,62.521217,1.1,0.9,1.1,0.9
164,'            ',115.0,1,1,1,1,1.0531177,62.47343,1.1,0.9,1.1,0.9
165,'            ',115.0,1,1,1,1,0.99478856,26.249551,1.1,0.9,1.1,0.9
166,'            ',115.0,1,1,1,1,0.994851,26.258634,1.1,0.9,1.1,0.9
167,'            ',115.0,1,1,1,1,0.99478856,26.249551,1.1,0.9,1.1,0.9
168,'            ',115.0,1,1,1,1,1.0000965,28.500806,1.1,0.9,1.1,0.9
169,'            ',115.0,1,1,1,1,0.99408477,23.073988,1.1,0.9,1.1,0.9
170,'            ',115.0,1,1,1,1,0.99184242,24.035303,1.1,0.9,1.1,0.9
171,'            ',115.0,1,1,1,1,0.99175608,24.02646,1.1,0.9,1.1,0.9
172,'            ',230.0,1,1,1,1,0.99453132,39.52554,1.1,0.9,1.1,0.9
173,'            ',115.0,1,1,1,1,1.0002973,30.548411,1.1,0.9,1.1,0.9
174,'            ',230.0,1,1,1,1,0.995,39.509714,1.1,0.9,1.1,0.9
175,'            ',115.0,1,1,1,1,1.0436952,71.080058,1.1,0.9,1.1,0.9
176,'            ',115.0,1,1,1,1,1.0418024,73.375564,1.1,0.9,1.1,0.9
177,'            ',115.0,1,1,1,1,1.0417616,73.371527,1.1,0.9,1.1,0.9
178,'            ',230.0,1,1,1,1,1.0436021,59.118056,1.1,0.9,1.1,0.9
179,'            ',115.0,1,1,1,1,1.0429727,59.13104,1.1,0.9,1.1,0.9
180,'            ',230.0,1,1,1,1,1.0436149,59.117601,1.1,0.9,1.1,0.9
181,'            ',230.0,1,1,1,1,1.0436021,59.118056,1.1,0.9,1.1,0.9
182,'            ',115.0,1,1,1,1,0.99497614,55.806943,1.1,0.9,1.1,0.9
183,'            ',115.0,1,1,1,1,0.995,55.811639,1.1,0.9,1.1,0.9
184,'            ',115.0,1,1,1,1,0.94830249,47.058087,1.1,0.9,1.1,0.9
185,'            ',115.0,1,1,1,1,1.0123621,61.532557,1.1,0.9,1.1,0.9
186,'            ',115.0,1,1,1,1,1.0101135,61.295622,1.1,0.9,1.1,0.9
187,'            ',115.0,1,1,1,1,1.0096064,61.278006,1.1,0.9,1.1,0.9
188,'            ',115.0,1,1,1,1,1.0095141,61.270045,1.1,0.9,1.1,0.9
189,'            ',115.0,1,1,1,1,1.0544831,61.784072,1.1,0.9,1.1,0.9
190,'            ',115.0,1,1,1,1,1.0442655,59.942396,1.1,0.9,1.1,0.9
191,'            ',115.0,1,1,1,1,1.0314914,66.592943,1.1,0.9,1.1,0.9
192,'            ',115.0,1,1,1,1,1.0039381,60.540318,1.1,0.9,1.1,0.9
193,'            ',115.0,1,1,1,1,0.995,60.90405,1.1,0.9,1.1,0.9
194,'            ',230.0,1,1,1,1,1.0266225,63.631638,1.1,0.9,1.1,0.9
195,'            ',115.0,1,1,1,1,1.0149224,61.82958,1.1,0.9,1.1,0.9
196,'            ',230.0,1,1,1,1,1.0254474,63.827517,1.1,0.9,1.1,0.9
197,'            ',115.0,1,1,1,1,0.99936635,60.209438,1.1,0.9,1.1,0.9
198,'            ',230.0,1,1,1,1,1.0024651,60.775221,1.1,0.9,1.1,0.9
199,'            ',115.0,1,1,1,1,1.0055399,60.31034,1.1,0.9,1.1,0.9
200,'            ',230.0,1,1,1,1,1.0022962,60.760131,1.1,0.9,1.1,0.9
...
0 / END OF BUS DATA BEGIN LOAD DATA
1,'1',1,1,1,12.008,6.774,0.0,0.0,0.0,0.0,1,1,0
2,'1',1,1,1,6.868,3.336,0.0,0.0,0.0,0.0,1,1,0
3,'1',1,1,1,9.64,0.898,0.0,0.0,0.0,0.0,1,1,0
4,'1',1,1,1,5.584,1.343,0.0,0.0,0.0,0.0,1,1,0
6,'1',1,1,1,6.711,3.079,0.0,0.0,0.0,0.0,1,1,0
7,'1',1,1,1,13.416,2.398,0.0,0.0,0.0,0.0,1,1,0
8,'1',1,1,1,15.379,0.983,0.0,0.0,0.0,0.0,1,1,0
9,'1',1,1,1,12.623,5.543,0.0,0.0,0.0,0.0,1,1,0
10,'1',1,1,1,22.417,5.471,0.0,0.0,0.0,0.0,1,1,0
11,'1',1,1,1,7.452,0.436,0.0,0.0,0.0,0.0,1,1,0
14,'1',1,1,1,14.9,4.399,0.0,0.0,0.0,0.0,1,1,0
18,'1',1,1,1,18.973,1.57,0.0,0.0,0.0,0.0,1,1,0
21,'1',1,1,1,36.458,2.927,0.0,0.0,0.0,0.0,1,1,0
24,'1',1,1,1,15.687,5.953,0.0,0.0,0.0,0.0,1,1,0
25,'1',1,1,1,16.098,5.433,0.0,0.0,0.0,0.0,1,1,0
26,'1',1,1,1,6.511,0.924,0.0,0.0,0.0,0.0,1,1,0
30,'1',1,1,1,48.801,15.684,0.0,0.0,0.0,0.0,1,1,0
33,'1',1,1,1,31.92,7.313,0.0,0.0,0.0,0.0,1,1,0
34,'1',1,1,1,12.136,7.494,0.0,0.0,0.0,0.0,1,1,0
36,'1',1,1,1,8.985,2.553,0.0,0.0,0.0,0.0,1,1,0
39,'1',1,1,1,21.145,10.754,0.0,0.0,0.0,0.0,1,1,0
40,'1',1,1,1,15.869,2.933,0.0,0.0,0.0,0.0,1,1,0
41,'1',1,1,1,14.757,4.927,0.0,0.0,0.0,0.0,1,1,0
42,'1',1,1,1,15.869,1.058,0.0,0.0,0.0,0.0,1,1,0
43,'1',1,1,1,18.251,7.122,0.0,0.0,0.0,0.0,1,1,0
44,'1',1,1,1,14.604,3.849,0.0,0.0,0.0,0.0,1,1,0
45,'1',1,1,1,11.522,2.771,0.0,0.0,0.0,0.0,1,1,0
46,'1',1,1,1,15.872,3.561,0.0,0.0,0.0,0.0,1,1,0
47,'1',1,1,1,7.928,1.295,0.0,0.0,0.0,0.0,1,1,0
48,'1',1,1,1,11.993,2.16,0.0,0.0,0.0,0.0,1,1,0
49,'1',1,1,1,1.423,0.499,0.0,0.0,0.0,0.0,1,1,0
51,'1',1,1,1,12.416,3.336,0.0,0.0,0.0,0.0,1,1,0
52,'1',1,1,1,24.832,7.421,0.0,0.0,0.0,0.0,1,1,0
55,'1',1,1,1,23.686,2.957,0.0,0.0,0.0,0.0,1,1,0
57,'1',1,1,1,7.626,1.563,0.0,0.0,0.0,0.0,1,1,0
58,'1',1,1,1,19.369,11.277,0.0,0.0,0.0,0.0,1,1,0
59,'1',1,1,1,18.263,2.053,0.0,0.0,0.0,0.0,1,1,0
60,'1',1,1,1,10.481,5.542,0.0,0.0,0.0,0.0,1,1,0
61,'1',1,1,1,10.481,1.732,0.0,0.0,0.0,0.0,1,1,0
62,'1',1,1,1,24.232,4.288,0.0,0.0,0.0,0.0,1,1,0
66,'1',1,1,1,45.801,8.205,0.0,0.0,0.0,0.0,1,1,0
67,'1',1,1,1,12.975,1.424,0.0,0.0,0.0,0.0,1,1,0
69,'1',1,1,1,12.33,2.837,0.0,0.0,0.0,0.0,1,1,0
70,'1',1,1,1,14.623,4.878,0.0,0.0,0.0,0.0,1,1,0
71,'1',1,1,1,6.681,1.757,0.0,0.0,0.0,0.0,1,1,0
74,'1',1,1,1,13.199,0.579,0.0,0.0,0.0,0.0,1,1,0
76,'1',1,1,1,7.746,1.373,0.0,0.0,0.0,0.0,1,1,0
77,'1',1,1,1,22.674,0.295,0.0,0.0,0.0,0.0,1,1,0
78,'1',1,1,1,3.958,0.68,0.0,0.0,0.0,0.0,1,1,0
82,'1',1,1,1,59.473,5.212,0.0,0.0,0.0,0.0,1,1,0
84,'1',1,1,1,31.188,11.156,0.0,0.0,0.0,0.0,1,1,0
86,'1',1,1,1,3.847,0.93,0.0,0.0,0.0,0.0,1,1,0
88,'1',1,1,1,26.728,20.314,0.0,0.0,0.0,0.0,1,1,0
90,'1',1,1,1,24.151,8.34,0.0,0.0,0.0,0.0,1,1,0
94,'1',1,1,1,42.002,13.795,0.0,0.0,0.0,0.0,1,1,0
96,'1',1,1,1,5.438,2.211,0.0,0.0,0.0,0.0,1,1,0
97,'1',1,1,1,7.961,2.381,0.0,0.0,0.0,0.0,1,1,0
98,'1',1,1,1,17.521,6.586,0.0,0.0,0.0,0.0,1,1,0
100,'1',1,1,1,14.501,3.546,0.0,0.0,0.0,0.0,1,1,0
101,'1',1,1,1,10.383,1.447,0.0,0.0,0.0,0.0,1,1,0
103,'1',1,1,1,19.531,2.901,0.0,0.0,0.0,0.0,1,1,0
104,'1',1,1,1,35.941,3.857,0.0,0.0,0.0,0.0,1,1,0
106,'1',1,1,1,43.099,23.267,0.0,0.0,0.0,0.0,1,1,0
109,'1',1,1,1,54.304,6.875,0.0,0.0,0.0,0.0,1,1,0
111,'1',1,1,1,7.768,2.07,0.0,0.0,0.0,0.0,1,1,0
112,'1',1,1,1,17.964,7.063,0.0,0.0,0.0,0.0,1,1,0
113,'1',1,1,1,56.829,17.268,0.0,0.0,0.0,0.0,1,1,0
114,'1',1,1,1,46.08,16.656,0.0,0.0,0.0,0.0,1,1,0
116,'1',1,1,1,44.013,9.173,0.0,0.0,0.0,0.0,1,1,0
119,'1',1,1,1,12.95,6.087,0.0,0.0,0.0,0.0,1,1,0
121,'1',1,1,1,19.905,8.576,0.0,0.0,0.0,0.0,1,1,0
122,'1',1,1,1,6.393,1.014,0.0,0.0,0.0,0.0,1,1,0
123,'1',1,1,1,4.788,1.412,0.0,0.0,0.0,0.0,1,1,0
124,'1',1,1,1,23.111,5.927,0.0,0.0,0.0,0.0,1,1,0
125,'1',1,1,1,37.381,12.976,0.0,0.0,0.0,0.0,1,1,0
126,'1',1,1,1,17.292,6.234,0.0,0.0,0.0,0.0,1,1,0
127,'1',1,1,1,9.959,1.337,0.0,0.0,0.0,0.0,1,1,0
129,'1',1,1,1,4.33,4.799,0.0,0.0,0.0,0.0,1,1,0
131,'1',1,1,1,39.578,8.655,0.0,0.0,0.0,0.0,1,1,0
135,'1',1,1,1,25.205,4.415,0.0,0.0,0.0,0.0,1,1,0
136,'1',1,1,1,13.778,3.101,0.0,0.0,0.0,0.0,1,1,0
137,'1',1,1,1,11.912,3.843,0.0,0.0,0.0,0.0,1,1,0
139,'1',1,1,1,12.818,4.03,0.0,0.0,0.0,0.0,1,1,0
140,'1',1,1,1,9.078,5.175,0.0,0.0,0.0,0.0,1,1,0
141,'1',1,1,1,9.915,6.99,0.0,0.0,0.0,0.0,1,1,0
142,'1',1,1,1,5.358,4.016,0.0,0.0,0.0,0.0,1,1,0
143,'1',1,1,1,13.569,2.194,0.0,0.0,0.0,0.0,1,1,0
145,'1',1,1,1,14.887,1.244,0.0,0.0,0.0,0.0,1,1,0
147,'1',1,1,1,6.181,0.796,0.0,0.0,0.0,0.0,1,1,0
148,'1',1,1,1,15.741,5.479,0.0,0.0,0.0,0.0,1,1,0
150,'1',1,1,1,3.261,0.279,0.0,0.0,0.0,0.0,1,1,0
151,'1',1,1,1,9.721,2.063,0.0,0.0,0.0,0.0,1,1,0
152,'1',1,1,1,10.569,6.564,0.0,0.0,0.0,0.0,1,1,0
153,'1',1,1,1,6.701,1.573,0.0,0.0,0.0,0.0,1,1,0
154,'1',1,1,1,4.33,1.693,0.0,0.0,0.0,0.0,1,1,0
155,'1',1,1,1,6.598,2.765,0.0,0.0,0.0,0.0,1,1,0
157,'1',1,1,1,6.454,1.023,0.0,0.0,0.0,0.0,1,1,0
158,'1',1,1,1,4.714,1.948,0.0,0.0,0.0,0.0,1,1,0
159,'1',1,1,1,9.869,4.017,0.0,0.0,0.0,0.0,1,1,0
162,'1',1,1,1,19.513,6.021,0.0,0.0,0.0,0.0,1,1,0
164,'1',1,1,1,9.522,2.605,0.0,0.0,0.0,0.0,1,1,0
165,'1',1,1,1,14.473,1.797,0.0,0.0,0.0,0.0,1,1,0
168,'1',1,1,1,14.197,4.833,0.0,0.0,0.0,0.0,1,1,0
169,'1',1,1,1,14.197,4.4,0.0,0.0,0.0,0.0,1,1,0
171,'1',1,1,1,14.381,4.65,0.0,0.0,0.0,0.0,1,1,0
174,'1',1,1,1,14.197,4.76,0.0,0.0,0.0,0.0,1,1,0
175,'1',1,1,1,18.275,5.061,0.0,0.0,0.0,0.0,1,1,0
177,'1',1,1,1,7.129,1.899,0.0,0.0,0.0,0.0,1,1,0
179,'1',1,1,1,16.994,3.474,0.0,0.0,0.0,0.0,1,1,0
182,'1',1,1,1,7.907,0.458,0.0,0.0,0.0,0.0,1,1,0
184,'1',1,1,1,5.851,2.886,0.0,0.0,0.0,0.0,1,1,0
185,'1',1,1,1,9.955,4.362,0.0,0.0,0.0,0.0,1,1,0
186,'1',1,1,1,9.955,5.187,0.0,0.0,0.0,0.0,1,1,0
188,'1',1,1,1,13.822,5.908,0.0,0.0,0.0,0.0,1,1,0
189,'1',1,1,1,10.966,0.776,0.0,0.0,0.0,0.0,1,1,0
190,'1',1,1,1,3.38,0.859,0.0,0.0,0.0,0.0,1,1,0
191,'1',1,1,1,3.886,2.008,0.0,0.0,0.0,0.0,1,1,0
192,'1',1,1,1,12.636,2.296,0.0,0.0,0.0,0.0,1,1,0
193,'1',1,1,1,12.282,3.515,0.0,0.0,0.0,0.0,1,1,0
195,'1',1,1,1,38.972,13.095,0.0,0.0,0.0,0.0,1,1,0
197,'1',1,1,1,13.234,2.802,0.0,0.0,0.0,0.0,1,1,0
200,'1',1,1,1,24.402,8.97,0.0,0.0,0.0,0.0,1,1,0
202,'1',1,1,1,11.716,6.755,0.0,0.0,0.0,0.0,1,1,0
204,'1',1,1,1,20.545,8.775,0.0,0.0,0.0,0.0,1,1,0
205,'1',1,1,1,16.357,1.97,0.0,0.0,0.0,0.0,1,1,0
206,'1',1,1,1,15.637,8.926,0.0,0.0,0.0,0.0,1,1,0
209,'1',1,1,1,48.374,24.159,0.0,0.0,0.0,0.0,1,1,0
211,'1',1,1,1,15.861,6.344,0.0,0.0,0.0,0.0,1,1,0
213,'1',1,1,1,2.679,0.86,0.0,0.0,0.0,0.0,1,1,0
214,'1',1,1,1,2.353,0.344,0.0,0.0,0.0,0.0,1,1,0
215,'1',1,1,1,5.2,2.2,0.0,0.0,0.0,0.0,1,1,0
219,'1',1,1,1,12.032,2.674,0.0,0.0,0.0,0.0,1,1,0
220,'1',1,1,1,1.787,0.359,0.0,0.0,0.0,0.0,1,1,0
221,'1',1,1,1,8.391,2.005,0.0,0.0,0.0,0.0,1,1,0
223,'1',1,1,1,3.37,1.453,0.0,0.0,0.0,0.0,1,1,0
224,'1',1,1,1,2.795,0.784,0.0,0.0,0.0,0.0,1,1,0
225,'1',1,1,1,8.8,1.175,0.0,0.0,0.0,0.0,1,1,0
227,'1',1,1,1,6.483,1.382,0.0,0.0,0.0,0.0,1,1,0
228,'1',1,1,1,14.793,3.278,0.0,0.0,0.0,0.0,1,1,0
229,'1',1,1,1,9.181,3.098,0.0,0.0,0.0,0.0,1,1,0
230,'1',1,1,1,26.292,3.522,0.0,0.0,0.0,0.0,1,1,0
231,'1',1,1,1,10.346,1.732,0.0,0.0,0.0,0.0,1,1,0
232,'1',1,1,1,12.976,3.212,0.0,0.0,0.0,0.0,1,1,0
233,'1',1,1,1,8.287,1.95,0.0,0.0,0.0,0.0,1,1,0
237,'1',1,1,1,21.338,7.67,0.0,0.0,0.0,0.0,1,1,0
239,'1',1,1,1,7.389,2.756,0.0,0.0,0.0,0.0,1,1,0
241,'1',1,1,1,6.321,1.334,0.0,0.0,0.0,0.0,1,1,0
242,'1',1,1,1,2.898,1.504,0.0,0.0,0.0,0.0,1,1,0
243,'1',1,1,1,3.299,4.072,0.0,0.0,0.0,0.0,1,1,0
244,'1',1,1,1,4.891,1.42,0.0,0.0,0.0,0.0,1,1,0
247,'1',1,1,1,16.44,6.124,0.0,0.0,0.0,0.0,1,1,0
249,'1',1,1,1,5.616,1.062,0.0,0.0,0.0,0.0,1,1,0
251,'1',1,1,1,4.171,0.955,0.0,0.0,0.0,0.0,1,1,0
254,'1',1,1,1,34.238,3.143,0.0,0.0,0.0,0.0,1,1,0
256,'1',1,1,1,12.981,0.834,0.0,0.0,0.0,0.0,1,1,0
258,'1',1,1,1,31.044,13.022,0.0,0.0,0.0,0.0,1,1,0
259,'1',1,1,1,15.693,8.506,0.0,0.0,0.0,0.0,1,1,0
260,'1',1,1,1,1.829,1.195,0.0,0.0,0.0,0.0,1,1,0
263,'1',1,1,1,36.712,11.001,0.0,0.0,0.0,0.0,1,1,0
264,'1',1,1,1,18.356,3.609,0.0,0.0,0.0,0.0,1,1,0
265,'1',1,1,1,21.541,3.906,0.0,0.0,0.0,0.0,1,1,0
267,'1',1,1,1,18.356,5.162,0.0,0.0,0.0,0.0,1,1,0
270,'1',1,1,1,15.935,7.233,0.0,0.0,0.0,0.0,1,1,0
271,'1',1,1,1,28.438,7.229,0.0,0.0,0.0,0.0,1,1,0
274,'1',1,1,1,6.725,3.387,0.0,0.0,0.0,0.0,1,1,0
276,'1',1,1,1,3.317,0.629,0.0,0.0,0.0,0.0,1,1,0
277,'1',1,1,1,8.264,0.794,0.0,0.0,0.0,0.0,1,1,0
278,'1',1,1,1,15.064,8.979,0.0,0.0,0.0,0.0,1,1,0
279,'1',1,1,1,5.093,0.584,0.0,0.0,0.0,0.0,1,1,0
280,'1',1,1,1,17.651,5.901,0.0,0.0,0.0,0.0,1,1,0
281,'1',1,1,1,35.302,12.678,0.0,0.0,0.0,0.0,1,1,0
282,'1',1,1,1,10.03,2.571,0.0,0.0,0.0,0.0,1,1,0
283,'1',1,1,1,37.038,10.739,0.0,0.0,0.0,0.0,1,1,0
284,'1',1,1,1,18.519,5.342,0.0,0.0,0.0,0.0,1,1,0
286,'1',1,1,1,36.17,7.15,0.0,0.0,0.0,0.0,1,1,0
290,'1',1,1,1,14.911,0.853,0.0,0.0,0.0,0.0,1,1,0
292,'1',1,1,1,23.18,16.853,0.0,0.0,0.0,0.0,1,1,0
296,'1',1,1,1,43.318,5.307,0.0,0.0,0.0,0.0,1,1,0
298,'1',1,1,1,21.659,15.294,0.0,0.0,0.0,0.0,1,1,0
300,'1',1,1,1,21.659,4.148,0.0,0.0,0.0,0.0,1,1,0
301,'1',1,1,1,5.64,2.383,0.0,0.0,0.0,0.0,1,1,0
303,'1',1,1,1,6.993,1.32,0.0,0.0,0.0,0.0,1,1,0
305,'1',1,1,1,6.626,0.862,0.0,0.0,0.0,0.0,1,1,0
306,'1',1,1,1,3.459,1.842,0.0,0.0,0.0,0.0,1,1,0
307,'1',1,1,1,5.108,0.809,0.0,0.0,0.0,0.0,1,1,0
308,'1',1,1,1,5.424,2.211,0.0,0.0,0.0,0.0,1,1,0
309,'1',1,1,1,17.912,0.863,0.0,0.0,0.0,0.0,1,1,0
313,'1',1,1,1,19.002,11.222,0.0,0.0,0.0,0.0,1,1,0
314,'1',1,1,1,17.912,1.926,0.0,0.0,0.0,0.0,1,1,0
316,'1',1,1,1,17.912,1.953,0.0,0.0,0.0,0.0,1,1,0
317,'1',1,1,1,5.776,1.379,0.0,0.0,0.0,0.0,1,1,0
319,'1',1,1,1,3.829,1.95,0.0,0.0,0.0,0.0,1,1,0
321,'1',1,1,1,5.192,0.885,0.0,0.0,0.0,0.0,1,1,0
322,'1',1,1,1,10.934,3.237,0.0,0.0,0.0,0.0,1,1,0
325,'1',1,1,1,17.714,2.319,0.0,0.0,0.0,0.0,1,1,0
327,'1',1,1,1,12.984,5.582,0.0,0.0,0.0,0.0,1,1,0
329,'1',1,1,1,18.267,4.618,0.0,0.0,0.0,0.0,1,1,0
331,'1',1,1,1,12.216,6.867,0.0,0.0,0.0,0.0,1,1,0
332,'1',1,1,1,7.05,1.594,0.0,0.0,0.0,0.0,1,1,0
336,'1',1,1,1,14.615,7.123,0.0,0.0,0.0,0.0,1,1,0
...
0 / END OF LOAD DATA BEGIN FIXED SHUNT DATA
27,'1',1,0.0,-57.362
194,'1',1,0.0,87.873
371,'1',1,0.0,5.191
383,'1',1,0.0,12.599
473,'1',1,0.0,228.952
509,'1',1,0.0,2.782
567,'1',1,0.0,29.751
590,'1',1,0.0,11.135
759,'1',1,0.0,116.652
834,'1',1,0.0,21.693
842,'1',1,0.0,57.477
898,'1',1,0.0,14.791
1116,'1',1,0.0,184.114
1277,'1',1,0.0,47.903
1296,'1',1,0.0,76.02
1300,'1',1,0.0,23.723
1320,'1',1,0.0,3.63
1343,'1',1,0.0,63.348
1444,'1',1,0.0,15.724
1472,'1',1,0.0,11.069
1502,'1',1,0.0,7.802
1567,'1',1,0.0,24.892
1600,'1',1,0.0,17.862
1608,'1',1,0.0,1.366
1737,'1',1,0.0,10.478
1749,'1',1,0.0,8.877
1794,'1',1,0.0,95.822
1816,'1',1,0.0,95.325
1822,'1',1,0.0,15.345
1888,'1',1,0.0,228.267
1977,'1',1,0.0,99.582
2001,'1',1,0.0,56.734
2136,'1',1,0.0,9.689
2144,'1',1,0.0,29.515
2189,'1',1,0.0,35.872
2199,'1',1,0.0,89.558
2986,'1',1,0.0,-51.586
3117,'1',1,0.0,-11.098
3209,'1',1,0.0,3.906
3306,'1',1,0.0,30.333
3385,'1',1,0.0,32.036
3401,'1',1,0.0,-18.96
3428,'1',1,0.0,177.84
3447,'1',1,0.0,-228.744
3803,'1',1,0.0,58.53
3811,'1',1,0.0,-80.0
3892,'1',1,0.0,11.234
4030,'1',1,0.0,18.605
4565,'1',1,0.0,19.018
4629,'1',1,0.0,32.397
4799,'1',1,0.0,157.228
5065,'1',1,0.0,14.497
5223,'1',1,0.0,8.672
5716,'1',1,0.0,101.26
6039,'1',1,0.0,40.634
6059,'1',1,0.0,-13.973
6249,'1',1,0.0,-36.464
6496,'1',1,0.0,23.819
6565,'1',1,0.0,7.527
6819,'1',1,0.0,18.587
6901,'1',1,0.0,2.154
7143,'1',1,0.0,80.673
7459,'1',1,0.0,46.638
7654,'1',1,0.0,109.352
7674,'1',1,0.0,41.208
7697,'1',1,0.0,6.154
7853,'1',1,0.0,12.594
8032,'1',1,0.0,46.561
8172,'1',1,0.0,-0.778
8208,'1',1,0.0,21.156
8215,'1',1,0.0,36.886
8233,'1',1,0.0,64.366
8259,'1',1,0.0,16.863
8264,'1',1,0.0,35.1
8608,'1',1,0.0,1.322
8882,'1',1,0.0,80.0
9050,'1',1,0.0,-32.33
9399,'1',1,0.0,4.777
9441,'1',1,0.0,52.697
9614,'1',1,0.0,9.806
0 / END OF FIXED SHUNT DATA BEGIN GENERATOR DATA
2275,'1',30.258036,-9.5395844,48.61,-10.6,1.036,0,95.5,0.0,1.0,0.0,0.0,1.0,1,1.0,95.5,29.823,1,1.0,0,1.0,0,1.0,0,1.0,0,1.0
2276,'1',40.014036,-7.6800463,48.61,-10.6,1.036,0,95.5,0.0,1.0,0.0,0.0,1.0,1,1.0,95.5,39.579,1,1.0,0,1.0,0,1.0,0,1.0,0,1.0
2277,'1',12.220036,-7.1398724,48.61,-10.6,1.036,0,95.5,0.0,1.0,0.0,0.0,1.0,1,1.0,95.5,11.785,1,1.0,0,1.0,0,1.0,0,1.0,0,1.0
2278,'1',11.758036,-8.8002914,48.61,-10.6,1.036,0,95.5,0.0,1.0,0.0,0.0,1.0,1,1.0,95.5,11.323,1,1.0,0,1.0,0,1.0,0,1.0,0,1.0
2279,'1',22.990036,-8.2515205,48.61,-10.6,1.036,0,95.5,0.0,1.0,0.0,0.0,1.0,1,1.0,95.5,22.555,1,1.0,0,1.0,0,1.0,0,1.0,0,1.0
2280,'1',19.584036,-7.34578,48.61,-10.6,1.036,0,95.5,0.0,1.0,0.0,0.0,1.0,1,1.0,95.5,19.149,1,1.0,0,1.0,0,1.0,0,1.0,0,1.0
2285,'1',201.0,-14.527506,42.813,-28.944,1.04,0,201.0,0.0,1.0,0.0,0.0,1.0,1,1.0,201.0,58.433,1,1.0,0,1.0,0,1.0,0,1.0,0,1.0
2289,'1',7.6,-0.89923653,3.542,-0.927,1.0471483,0,7.6,0.0,1.0,0.0,0.0,1.0,1,1.0,7.6,2.682,1,1.0,0,1.0,0,1.0,0,1.0,0,1.0
2289,'2',4.7,-0.55583498,2.19,-0.573,1.0471483,0,4.7,0.0,1.0,0.0,0.0,1.0,1,1.0,4.7,1.507,1,1.0,0,1.0,0,1.0,0,1.0,0,1.0
2290,'1',1.733,-0.19069364,0.808,-0.211,1.0499696,0,1.73,0.0,1.0,0.0,0.0,1.0,1,1.0,1.733,0.79,1,1.0,0,1.0,0,1.0,0,1.0,0,1.0
2290,'2',1.733,-0.19069364,0.808,-0.211,1.0499696,0,1.73,0.0,1.0,0.0,0.0,1.0,1,1.0,1.733,0.337,1,1.0,0,1.0,0,1.0,0,1.0,0,1.0
2291,'1',1.733,-0.19342517,0.808,-0.211,1.0499528,0,1.73,0.0,1.0,0.0,0.0,1.0,1,1.0,1.733,0.583,1,1.0,0,1.0,0,1.0,0,1.0,0,1.0
2291,'2',1.733,-0.19342517,0.808,-0.211,1.0499528,0,1.73,0.0,1.0,0.0,0.0,1.0,1,1.0,1.733,0.849,1,1.0,0,1.0,0,1.0,0,1.0,0,1.0
2292,'1',1.733,-0.20047566,0.808,-0.211,1.0490807,0,1.73,0.0,1.0,0.0,0.0,1.0,1,1.0,1.733,0.316,1,1.0,0,1.0,0,1.0,0,1.0,0,1.0
2293,'1',1.733,-0.20435898,0.808,-0.211,1.0474208,0,1.73,0.0,1.0,0.0,0.0,1.0,1,1.0,1.733,0.545,1,1.0,0,1.0,0,1.0,0,1.0,0,1.0
2294,'1',1.6,-0.18013913,0.746,-0.195,1.0496869,0,1.6,0.0,1.0,0.0,0.0,1.0,1,1.0,1.6,0.427,1,1.0,0,1.0,0,1.0,0,1.0,0,1.0
2294,'2',1.6,-0.18013913,0.746,-0.195,1.0496869,0,1.6,0.0,1.0,0.0,0.0,1.0,1,1.0,1.6,0.429,1,1.0,0,1.0,0,1.0,0,1.0,0,1.0
2295,'1',1.5,-0.1752004,0.699,-0.183,1.0484543,0,1.5,0.0,1.0,0.0,0.0,1.0,1,1.0,1.5,0.455,1,1.0,0,1.0,0,1.0,0,1.0,0,1.0
2295,'2',1.4,-0.16372214,0.652,-0.171,1.0484543,0,1.4,0.0,1.0,0.0,0.0,1.0,1,1.0,1.4,0.161,1,1.0,0,1.0,0,1.0,0,1.0,0,1.0
2296,'1',0.5,-0.060208993,0.233,-0.061,1.0398066,0,0.5,0.0,1.0,0.0,0.0,1.0,1,1.0,0.5,0.238,1,1.0,0,1.0,0,1.0,0,1.0,0,1.0
2302,'1',112.54127,133.23023,149.646,-32.634,1.0355,0,294.0,0.0,1.0,0.0,0.0,1.0,1,1.0,294.0,111.202,1,1.0,0,1.0,0,1.0,0,1.0,0,1.0
2303,'1',89.054273,49.305992,149.646,-32.634,1.031,0,294.0,0.0,1.0,0.0,0.0,1.0,1,1.0,294.0,87.715,1,1.0,0,1.0,0,1.0,0,1.0,0,1.0
2304,'1',74.506273,105.47395,149.646,-32.634,1.0355,0,294.0,0.0,1.0,0.0,0.0,1.0,1,1.0,294.0,73.167,1,1.0,0,1.0,0,1.0,0,1.0,0,1.0
2310,'1',276.83925,-53.488972,290.038,-75.933,1.04,0,622.4,0.0,1.0,0.0,0.0,1.0,1,1.0,622.4,274.004,1,1.0,0,1.0,0,1.0,0,1.0,0,1.0
2315,'1',50.853477,47.75377,57.262,-12.488,1.0135,0,112.5,0.0,1.0,0.0,0.0,1.0,1,1.0,112.5,50.341,1,1.0,0,1.0,0,1.0,0,1.0,0,1.0
2316,'1',37.035477,46.453027,57.262,-12.488,1.0135,0,112.5,0.0,1.0,0.0,0.0,1.0,1,1.0,112.5,36.523,1,1.0,0,1.0,0,1.0,0,1.0,0,1.0
2317,'1',47.987477,28.202556,57.262,-12.488,1.0135,0,112.5,0.0,1.0,0.0,0.0,1.0,1,1.0,112.5,47.475,1,1.0,0,1.0,0,1.0,0,1.0,0,1.0
2318,'1',15.606477,45.434729,57.262,-12.488,1.0135,0,112.5,0.0,1.0,0.0,0.0,1.0,1,1.0,112.5,15.094,1,1.0,0,1.0,0,1.0,0,1.0,0,1.0
2323,'1',161.0,-4.2041109,34.293,-23.184,1.04,0,161.0,0.0,1.0,0.0,0.0,1.0,1,1.0,161.0,25.175,1,1.0,0,1.0,0,1.0,0,1.0,0,1.0
2327,'1',101.2,8.7948267,21.556,-14.573,1.04,0,101.2,0.0,1.0,0.0,0.0,1.0,1,1.0,101.2,39.642,1,1.0,0,1.0,0,1.0,0,1.0,0,1.0
2332,'1',55.086132,-3.5772009,93.317,-20.35,1.0625,0,183.33,0.0,1.0,0.0,0.0,1.0,1,1.0,183.333,54.251,1,1.0,0,1.0,0,1.0,0,1.0,0,1.0
2333,'1',86.064132,10.488861,93.317,-20.35,1.0625,0,183.33,0.0,1.0,0.0,0.0,1.0,1,1.0,183.333,85.229,1,1.0,0,1.0,0,1.0,0,1.0,0,1.0
2334,'1',70.678132,-4.2336088,93.317,-20.35,1.0625,0,183.33,0.0,1.0,0.0,0.0,1.0,1,1.0,183.333,69.843,1,1.0,0,1.0,0,1.0,0,1.0,0,1.0
2340,'1',206.722,-1.163,336.452,-88.084,1.0388065,0,722.0,0.0,1.0,0.0,0.0,1.0,0,1.0,722.0,187.779,1,1.0,0,1.0,0,1.0,0,1.0,0,1.0
2341,'1',306.209,-0.829,336.452,-88.084,1.0388065,0,722.0,0.0,1.0,0.0,0.0,1.0,0,1.0,722.0,295.436,1,1.0,0,1.0,0,1.0,0,1.0,0,1.0
2346,'1',14.086248,-3.1744223,45.505,-9.923,1.036,0,89.4,0.0,1.0,0.0,0.0,1.0,1,1.0,89.4,13.679,1,1.0,0,1.0,0,1.0,0,1.0,0,1.0
2347,'1',21.336248,-4.3173211,45.505,-9.923,1.036,0,89.4,0.0,1.0,0.0,0.0,1.0,1,1.0,89.4,20.929,1,1.0,0,1.0,0,1.0,0,1.0,0,1.0
2348,'1',18.762248,-2.8787845,45.505,-9.923,1.036,0,89.4,0.0,1.0,0.0,0.0,1.0,1,1.0,89.4,18.355,1,1.0,0,1.0,0,1.0,0,1.0,0,1.0
2349,'1',37.285248,-2.8280226,45.505,-9.923,1.036,0,89.4,0.0,1.0,0.0,0.0,1.0,1,1.0,89.4,36.878,1,1.0,0,1.0,0,1.0,0,1.0,0,1.0
2350,'1',25.981248,-4.3102511,45.505,-9.923,1.036,0,89.4,0.0,1.0,0.0,0.0,1.0,1,1.0,89.4,25.574,1,1.0,0,1.0,0,1.0,0,1.0,0,1.0
2351,'1',41.692248,-3.0942552,45.505,-9.923,1.036,0,89.4,0.0,1.0,0.0,0.0,1.0,1,1.0,89.4,41.285,1,1.0,0,1.0,0,1.0,0,1.0,0,1.0
2352,'1',0.11595895,0.042566553,0.221,-0.048,1.04,0,0.43,0.0,1.0,0.0,0.0,1.0,1,1.0,0.433,0.114,1,1.0,0,1.0,0,1.0,0,1.0,0,1.0
2353,'1',0.17595895,0.0016492216,0.221,-0.048,1.036,0,0.43,0.0,1.0,0.0,0.0,1.0,1,1.0,0.433,0.174,1,1.0,0,1.0,0,1.0,0,1.0,0,1.0
2353,'2',0.21295895,0.0016492216,0.221,-0.048,1.036,0,0.43,0.0,1.0,0.0,0.0,1.0,1,1.0,0.433,0.211,1,1.0,0,1.0,0,1.0,0,1.0,0,1.0
2358,'1',2.4258379,-1.3708733,8.029,-1.751,1.04,0,15.77,0.0,1.0,0.0,0.0,1.0,1,1.0,15.775,2.354,1,1.0,0,1.0,0,1.0,0,1.0,0,1.0
2358,'2',7.9488379,-1.3708733,8.029,-1.751,1.04,0,15.77,0.0,1.0,0.0,0.0,1.0,1,1.0,15.775,7.877,1,1.0,0,1.0,0,1.0,0,1.0,0,1.0
2359,'1',5.4248379,-1.6430578,8.029,-1.751,1.0424901,0,15.77,0.0,1.0,0.0,0.0,1.0,1,1.0,15.775,5.353,1,1.0,0,1.0,0,1.0,0,1.0,0,1.0
2360,'1',4.8068379,4.9660548,8.029,-1.751,1.045,0,15.77,0.0,1.0,0.0,0.0,1.0,1,1.0,15.775,4.735,1,1.0,0,1.0,0,1.0,0,1.0,0,1.0
2364,'1',22.28613,-17.851793,90.856,-19.814,1.0392469,0,178.5,0.0,1.0,0.0,0.0,1.0,1,1.0,178.5,21.473,1,1.0,0,1.0,0,1.0,0,1.0,0,1.0
2365,'1',50.35113,-18.27439,90.856,-19.814,1.0388108,0,178.5,0.0,1.0,0.0,0.0,1.0,1,1.0,178.5,49.538,1,1.0,0,1.0,0,1.0,0,1.0,0,1.0
2366,'1',57.70413,-16.777238,90.856,-19.814,1.036,0,178.5,0.0,1.0,0.0,0.0,1.0,1,1.0,178.5,56.891,1,1.0,0,1.0,0,1.0,0,1.0,0,1.0
2371,'1',40.278772,-12.487822,123.891,-27.017,1.0495,0,243.4,0.0,1.0,0.0,0.0,1.0,1,1.0,243.4,39.17,1,1.0,0,1.0,0,1.0,0,1.0,0,1.0
2372,'1',79.834772,-16.084349,123.891,-27.017,1.0495,0,243.4,0.0,1.0,0.0,0.0,1.0,1,1.0,243.4,78.726,1,1.0,0,1.0,0,1.0,0,1.0,0,1.0
2373,'1',113.98477,-11.056879,123.891,-27.017,1.0495,0,243.4,0.0,1.0,0.0,0.0,1.0,1,1.0,243.4,112.876,1,1.0,0,1.0,0,1.0,0,1.0,0,1.0
2376,'1',0.67471596,0.16256194,1.756,-0.383,1.0427965,0,3.45,0.0,1.0,0.0,0.0,1.0,1,1.0,3.45,0.659,1,1.0,0,1.0,0,1.0,0,1.0,0,1.0
2376,'2',1.501716,0.16256194,1.756,-0.383,1.0427965,0,3.45,0.0,1.0,0.0,0.0,1.0,1,1.0,3.45,1.486,1,1.0,0,1.0,0,1.0,0,1.0,0,1.0
2376,'3',1.5967767,0.23566949,2.545,-0.555,1.0427965,0,5.0,0.0,1.0,0.0,0.0,1.0,1,1.0,5.0,1.574,1,1.0,0,1.0,0,1.0,0,1.0,0,1.0
2376,'4',9.4056568,2.2624271,24.432,-5.328,1.0427965,0,48.0,0.0,1.0,0.0,0.0,1.0,1,1.0,48.0,9.187,1,1.0,0,1.0,0,1.0,0,1.0,0,1.0
2379,'1',39.6,100.14633,148.609,0.0,1.04,0,39.6,0.0,1.0,0.0,0.0,1.0,1,1.0,39.6,13.389,1,1.0,0,1.0,0,1.0,0,1.0,0,1.0
2384,'1',30.203195,50.427368,66.17,-14.43,1.009,0,130.0,0.0,1.0,0.0,0.0,1.0,1,1.0,130.0,29.611,1,1.0,0,1.0,0,1.0,0,1.0,0,1.0
2385,'1',36.367195,54.327443,66.17,-14.43,1.009,0,130.0,0.0,1.0,0.0,0.0,1.0,1,1.0,130.0,35.775,1,1.0,0,1.0,0,1.0,0,1.0,0,1.0
2390,'1',40.673179,-15.733371,79.353,-17.305,1.0644823,0,155.9,0.0,1.0,0.0,0.0,1.0,1,1.0,155.9,39.963,1,1.0,0,1.0,0,1.0,0,1.0,0,1.0
2391,'1',50.599179,-16.215779,79.353,-17.305,1.0618209,0,155.9,0.0,1.0,0.0,0.0,1.0,1,1.0,155.9,49.889,1,1.0,0,1.0,0,1.0,0,1.0,0,1.0
2392,'1',21.740179,-16.133687,79.353,-17.305,1.0621787,0,155.9,0.0,1.0,0.0,0.0,1.0,1,1.0,155.9,21.03,1,1.0,0,1.0,0,1.0,0,1.0,0,1.0
2397,'1',86.98,-15.347,335.986,-87.962,1.0425922,0,721.0,0.0,1.0,0.0,0.0,1.0,0,1.0,721.0,77.142,1,1.0,0,1.0,0,1.0,0,1.0,0,1.0
2401,'1',3.2,1.229,1.229,-0.157,1.039,0,3.2,0.0,1.0,0.0,0.0,1.0,1,1.0,3.2,0.842,1,1.0,0,1.0,0,1.0,0,1.0,0,1.0
2401,'2',3.2,1.229,1.229,-0.157,1.039,0,3.2,0.0,1.0,0.0,0.0,1.0,1,1.0,3.2,1.397,1,1.0,0,1.0,0,1.0,0,1.0,0,1.0
2401,'3',3.2,1.229,1.229,-0.157,1.039,0,3.2,0.0,1.0,0.0,0.0,1.0,1,1.0,3.2,1.238,1,1.0,0,1.0,0,1.0,0,1.0,0,1.0
2401,'4',33.0,12.672,12.672,-1.617,1.039,0,33.0,0.0,1.0,0.0,0.0,1.0,1,1.0,33.0,7.526,1,1.0,0,1.0,0,1.0,0,1.0,0,1.0
2401,'5',33.0,12.672,12.672,-1.617,1.039,0,33.0,0.0,1.0,0.0,0.0,1.0,1,1.0,33.0,7.945,1,1.0,0,1.0,0,1.0,0,1.0,0,1.0
2404,'1',76.25,-8.4532698,16.241,-10.98,1.0455,0,76.25,0.0,1.0,0.0,0.0,1.0,1,1.0,76.25,15.232,1,1.0,0,1.0,0,1.0,0,1.0,0,1.0
2404,'2',76.25,-8.4532698,16.241,-10.98,1.0455,0,76.25,0.0,1.0,0.0,0.0,1.0,1,1.0,76.25,22.085,1,1.0,0,1.0,0,1.0,0,1.0,0,1.0
2409,'1',3.7875498,0.71263904,14.252,-3.108,1.033,0,28.0,0.0,1.0,0.0,0.0,1.0,1,1.0,28.0,3.66,1,1.0,0,1.0,0,1.0,0,1.0,0,1.0
2409,'2',4.3555498,0.71263904,14.252,-3.108,1.033,0,28.0,0.0,1.0,0.0,0.0,1.0,1,1.0,28.0,4.228,1,1.0,0,1.0,0,1.0,0,1.0,0,1.0
2410,'1',8.6475498,-2.9323047,14.252,-3.108,1.0469398,0,28.0,0.0,1.0,0.0,0.0,1.0,1,1.0,28.0,8.52,1,1.0,0,1.0,0,1.0,0,1.0,0,1.0
2411,'1',9.7375498,-2.0203445,14.252,-3.108,1.04,0,28.0,0.0,1.0,0.0,0.0,1.0,1,1.0,28.0,9.61,1,1.0,0,1.0,0,1.0,0,1.0,0,1.0
2411,'2',3.8205498,-2.0203445,14.252,-3.108,1.04,0,28.0,0.0,1.0,0.0,0.0,1.0,1,1.0,28.0,3.693,1,1.0,0,1.0,0,1.0,0,1.0,0,1.0
2412,'1',4.1965498,-3.023234,14.252,-3.108,1.0432762,0,28.0,0.0,1.0,0.0,0.0,1.0,1,1.0,28.0,4.069,1,1.0,0,1.0,0,1.0,0,1.0,0,1.0
2416,'1',12.910916,-2.9201018,14.405,-3.141,1.04,0,28.3,0.0,1.0,0.0,0.0,1.0,1,1.0,28.3,12.782,1,1.0,0,1.0,0,1.0,0,1.0,0,1.0
2416,'2',8.2519164,-2.9201018,14.405,-3.141,1.04,0,28.3,0.0,1.0,0.0,0.0,1.0,1,1.0,28.3,8.123,1,1.0,0,1.0,0,1.0,0,1.0,0,1.0
2417,'1',14.152916,-2.735919,14.405,-3.141,1.04,0,28.3,0.0,1.0,0.0,0.0,1.0,1,1.0,28.3,14.024,1,1.0,0,1.0,0,1.0,0,1.0,0,1.0
2417,'2',3.4709164,-2.735919,14.405,-3.141,1.04,0,28.3,0.0,1.0,0.0,0.0,1.0,1,1.0,28.3,3.342,1,1.0,0,1.0,0,1.0,0,1.0,0,1.0
2418,'1',9.7749164,-2.7982321,14.405,-3.141,1.04,0,28.3,0.0,1.0,0.0,0.0,1.0,1,1.0,28.3,9.646,1,1.0,0,1.0,0,1.0,0,1.0,0,1.0
2418,'2',7.3589164,-2.7982321,14.405,-3.141,1.04,0,28.3,0.0,1.0,0.0,0.0,1.0,1,1.0,28.3,7.23,1,1.0,0,1.0,0,1.0,0,1.0,0,1.0
2423,'1',9.0158763,31.046036,31.049,-6.771,1.0239245,0,61.0,0.0,1.0,0.0,0.0,1.0,1,1.0,61.0,8.738,1,1.0,0,1.0,0,1.0,0,1.0,0,1.0
2424,'1',4.2753284,-2.664,12.216,-2.664,1.0401401,0,24.0,0.0,1.0,0.0,0.0,1.0,1,1.0,24.0,4.166,1,1.0,0,1.0,0,1.0,0,1.0,0,1.0
2428,'1',113.32678,126.571,126.571,-27.602,1.065,0,248.67,0.0,1.0,0.0,0.0,1.0,1,1.0,248.667,112.194,1,1.0,0,1.0,0,1.0,0,1.0,0,1.0
2429,'1',90.104779,81.735179,126.571,-27.602,1.065,0,248.67,0.0,1.0,0.0,0.0,1.0,1,1.0,248.667,88.972,1,1.0,0,1.0,0,1.0,0,1.0,0,1.0
2430,'1',84.552779,104.46502,126.571,-27.602,1.065,0,248.67,0.0,1.0,0.0,0.0,1.0,1,1.0,248.667,83.42,1,1.0,0,1.0,0,1.0,0,1.0,0,1.0
2433,'1',12.732248,2.0417269,45.505,-9.923,1.044,0,89.4,0.0,1.0,0.0,0.0,1.0,1,1.0,89.4,12.325,1,1.0,0,1.0,0,1.0,0,1.0,0,1.0
2433,'2',15.671248,2.0417269,45.505,-9.923,1.044,0,89.4,0.0,1.0,0.0,0.0,1.0,1,1.0,89.4,15.264,1,1.0,0,1.0,0,1.0,0,1.0,0,1.0
2433,'3',24.327248,2.0417269,45.505,-9.923,1.044,0,89.4,0.0,1.0,0.0,0.0,1.0,1,1.0,89.4,23.92,1,1.0,0,1.0,0,1.0,0,1.0,0,1.0
2433,'4',36.727248,2.0417269,45.505,-9.923,1.044,0,89.4,0.0,1.0,0.0,0.0,1.0,1,1.0,89.4,36.32,1,1.0,0,1.0,0,1.0,0,1.0,0,1.0
2433,'5',11.137248,2.0417269,45.505,-9.923,1.044,0,89.4,0.0,1.0,0.0,0.0,1.0,1,1.0,89.4,10.73,1,1.0,0,1.0,0,1.0,0,1.0,0,1.0
2441,'1',54.092802,85.078017,85.682,-18.685,1.0208307,0,168.33,0.0,1.0,0.0,0.0,1.0,1,1.0,168.333,53.326,1,1.0,0,1.0,0,1.0,0,1.0,0,1.0
2442,'1',49.431802,85.197854,85.682,-18.685,1.0225005,0,168.33,0.0,1.0,0.0,0.0,1.0,1,1.0,168.333,48.665,1,1.0,0,1.0,0,1.0,0,1.0,0,1.0
2443,'1',76.175802,85.332986,85.682,-18.685,1.0226553,0,168.33,0.0,1.0,0.0,0.0,1.0,1,1.0,168.333,75.409,1,1.0,0,1.0,0,1.0,0,1.0,0,1.0
2449,'1',136.21264,169.088,169.088,-35.226,1.0250127,0,317.35,0.0,1.0,0.0,0.0,1.0,1,1.0,317.35,134.767,1,1.0,0,1.0,0,1.0,0,1.0,0,1.0
2450,'1',115.16464,100.634,100.634,-35.226,1.014038,0,317.35,0.0,1.0,0.0,0.0,1.0,1,1.0,317.35,113.719,1,1.0,0,1.0,0,1.0,0,1.0,0,1.0
2455,'1',53.808395,14.589675,67.086,-14.63,1.032,0,131.8,0.0,1.0,0.0,0.0,1.0,1,1.0,131.8,53.208,1,1.0,0,1.0,0,1.0,0,1.0,0,1.0
2456,'1',59.822395,14.816231,67.086,-14.63,1.0365,0,131.8,0.0,1.0,0.0,0.0,1.0,1,1.0,131.8,59.222,1,1.0,0,1.0,0,1.0,0,1.0,0,1.0
2459,'1',7.5142177,-2.442,11.198,-2.442,1.0479586,0,22.0,0.0,1.0,0.0,0.0,1.0,1,1.0,22.0,7.414,1,1.0,0,1.0,0,1.0,0,1.0,0,1.0
2459,'2',4.6042177,-2.442,11.198,-2.442,1.0479586,0,22.0,0.0,1.0,0.0,0.0,1.0,1,1.0,22.0,4.504,1,1.0,0,1.0,0,1.0,0,1.0,0,1.0
2459,'3',10.055218,-2.442,11.198,-2.442,1.0479586,0,22.0,0.0,1.0,0.0,0.0,1.0,1,1.0,22.0,9.955,1,1.0,0,1.0,0,1.0,0,1.0,0,1.0
2464,'1',27.872411,15.472156,49.212,-10.732,1.054,0,96.68,0.0,1.0,0.0,0.0,1.0,1,1.0,96.683,27.432,1,1.0,0,1.0,0,1.0,0,1.0,0,1.0
2465,'1',28.647411,11.262449,49.212,-10.732,1.054,0,96.68,0.0,1.0,0.0,0.0,1.0,1,1.0,96.683,28.207,1,1.0,0,1.0,0,1.0,0,1.0,0,1.0
2466,'1',31.237411,9.8363906,49.212,-10.732,1.054,0,96.68,0.0,1.0,0.0,0.0,1.0,1,1.0,96.683,30.797,1,1.0,0,1.0,0,1.0,0,1.0,0,1.0
2467,'1',30.784411,11.692393,49.212,-10.732,1.054,0,96.68,0.0,1.0,0.0,0.0,1.0,1,1.0,96.683,30.344,1,1.0,0,1.0,0,1.0,0,1.0,0,1.0
2468,'1',33.377411,21.757295,49.212,-10.732,1.054,0,96.68,0.0,1.0,0.0,0.0,1.0,1,1.0,96.683,32.937,1,1.0,0,1.0,0,1.0,0,1.0,0,1.0
2469,'1',43.512411,15.346799,49.212,-10.732,1.054,0,96.68,0.0,1.0,0.0,0.0,1.0,1,1.0,96.683,43.072,1,1.0,0,1.0,0,1.0,0,1.0,0,1.0
2473,'1',12.35289,31.320948,38.76,-8.453,1.045,0,76.15,0.0,1.0,0.0,0.0,1.0,1,1.0,76.15,12.006,1,1.0,0,1.0,0,1.0,0,1.0,0,1.0
2473,'2',22.63789,31.320948,38.76,-8.453,1.045,0,76.15,0.0,1.0,0.0,0.0,1.0,1,1.0,76.15,22.291,1,1.0,0,1.0,0,1.0,0,1.0,0,1.0
2473,'3',36.37089,31.320948,38.76,-8.453,1.045,0,76.15,0.0,1.0,0.0,0.0,1.0,1,1.0,76.15,36.024,1,1.0,0,1.0,0,1.0,0,1.0,0,1.0
2473,'4',10.68889,31.320948,38.76,-8.453,1.045,0,76.15,0.0,1.0,0.0,0.0,1.0,1,1.0,76.15,10.342,1,1.0,0,1.0,0,1.0,0,1.0,0,1.0
2477,'1',10.879103,7.0470591,19.342,-4.218,1.0425,0,38.0,0.0,1.0,0.0,0.0,1.0,1,1.0,38.0,10.706,1,1.0,0,1.0,0,1.0,0,1.0,0,1.0
2481,'1',170.2,15.757868,36.253,-24.509,1.045,0,170.2,0.0,1.0,0.0,0.0,1.0,1,1.0,170.2,59.987,1,1.0,0,1.0,0,1.0,0,1.0,0,1.0
2486,'1',102.04086,79.867787,114.627,-24.997,1.0675,0,225.2,0.0,1.0,0.0,0.0,1.0,1,1.0,225.2,101.015,1,1.0,0,1.0,0,1.0,0,1.0,0,1.0
2487,'1',68.790865,112.67244,114.627,-24.997,1.0675,0,225.2,0.0,1.0,0.0,0.0,1.0,1,1.0,225.2,67.765,1,1.0,0,1.0,0,1.0,0,1.0,0,1.0
2488,'1',81.189865,105.75678,114.627,-24.997,1.0675,0,225.2,0.0,1.0,0.0,0.0,1.0,1,1.0,225.2,80.164,1,1.0,0,1.0,0,1.0,0,1.0,0,1.0
2493,'1',150.0,13.788077,31.95,-21.6,1.0445,0,150.0,0.0,1.0,0.0,0.0,1.0,1,1.0,150.0,53.398,1,1.0,0,1.0,0,1.0,0,1.0,0,1.0
2499,'1',180.0,-25.475756,38.34,-25.92,1.0431362,0,180.0,0.0,1.0,0.0,0.0,1.0,1,1.0,180.0,54.851,1,1.0,0,1.0,0,1.0,0,1.0,0,1.0
2500,'1',9.0,1.917,1.917,-1.296,1.0361123,0,9.0,0.0,1.0,0.0,0.0,1.0,1,1.0,9.0,2.266,1,1.0,0,1.0,0,1.0,0,1.0,0,1.0
2506,'1',79.320233,2.6903799,82.153,-17.915,1.047,0,161.4,0.0,1.0,0.0,0.0,1.0,1,1.0,161.4,78.585,1,1.0,0,1.0,0,1.0,0,1.0,0,1.0
2507,'1',53.140233,1.8525173,82.153,-17.915,1.047,0,161.4,0.0,1.0,0.0,0.0,1.0,1,1.0,161.4,52.405,1,1.0,0,1.0,0,1.0,0,1.0,0,1.0
2508,'1',52.560233,25.642948,82.153,-17.915,1.0515,0,161.4,0.0,1.0,0.0,0.0,1.0,1,1.0,161.4,51.825,1,1.0,0,1.0,0,1.0,0,1.0,0,1.0
2509,'1',61.474233,2.5466335,82.153,-17.915,1.047,0,161.4,0.0,1.0,0.0,0.0,1.0,1,1.0,161.4,60.739,1,1.0,0,1.0,0,1.0,0,1.0,0,1.0
2510,'1',74.975233,2.0386283,82.153,-17.915,1.047,0,161.4,0.0,1.0,0.0,0.0,1.0,1,1.0,161.4,74.24,1,1.0,0,1.0,0,1.0,0,1.0,0,1.0
2515,'1',101.38045,19.030173,104.973,-22.892,1.054,0,206.23,0.0,1.0,0.0,0.0,1.0,1,1.0,206.233,100.441,1,1.0,0,1.0,0,1.0,0,1.0,0,1.0
2516,'1',91.81445,18.797899,104.973,-22.892,1.054,0,206.23,0.0,1.0,0.0,0.0,1.0,1,1.0,206.233,90.875,1,1.0,0,1.0,0,1.0,0,1.0,0,1.0
2517,'1',97.33145,24.040587,104.973,-22.892,1.054,0,206.23,0.0,1.0,0.0,0.0,1.0,1,1.0,206.233,96.392,1,1.0,0,1.0,0,1.0,0,1.0,0,1.0
2521,'1',67.6,14.399,14.399,-9.734,1.054,0,67.6,0.0,1.0,0.0,0.0,1.0,1,1.0,67.6,10.419,1,1.0,0,1.0,0,1.0,0,1.0,0,1.0
2526,'1',51.003079,-0.5263027,78.895,-17.205,1.045,0,155.0,0.0,1.0,0.0,0.0,1.0,1,1.0,155.0,50.297,1,1.0,0,1.0,0,1.0,0,1.0,0,1.0
2527,'1',20.923079,-0.68633093,78.895,-17.205,1.045,0,155.0,0.0,1.0,0.0,0.0,1.0,1,1.0,155.0,20.217,1,1.0,0,1.0,0,1.0,0,1.0,0,1.0
2531,'1',30.0,0.0,0.0,0.0,1.0551081,0,30.0,0.0,1.0,0.0,0.0,1.0,1,1.0,30.0,3.39,1,1.0,0,1.0,0,1.0,0,1.0,0,1.0
2531,'2',1.4,0.0,0.0,0.0,1.0551081,0,1.4,0.0,1.0,0.0,0.0,1.0,1,1.0,1.4,0.549,1,1.0,0,1.0,0,1.0,0,1.0,0,1.0
2536,'1',25.004766,21.025032,30.031,-6.549,1.065,0,59.0,0.0,1.0,0.0,0.0,1.0,1,1.0,59.0,24.736,1,1.0,0,1.0,0,1.0,0,1.0,0,1.0
2537,'1',12.949766,12.635053,30.031,-6.549,1.065,0,59.0,0.0,1.0,0.0,0.0,1.0,1,1.0,59.0,12.681,1,1.0,0,1.0,0,1.0,0,1.0,0,1.0
2538,'1',18.011766,12.75564,30.031,-6.549,1.065,0,59.0,0.0,1.0,0.0,0.0,1.0,1,1.0,59.0,17.743,1,1.0,0,1.0,0,1.0,0,1.0,0,1.0
2539,'1',26.779766,18.148159,30.031,-6.549,1.065,0,59.0,0.0,1.0,0.0,0.0,1.0,1,1.0,59.0,26.511,1,1.0,0,1.0,0,1.0,0,1.0,0,1.0
2544,'1',67.870364,-17.208823,81.364,-21.301,1.04,0,174.6,0.0,1.0,0.0,0.0,1.0,1,1.0,174.6,67.075,1,1.0,0,1.0,0,1.0,0,1.0,0,1.0
2545,'1',43.054364,-18.314637,81.364,-21.301,1.04,0,174.6,0.0,1.0,0.0,0.0,1.0,1,1.0,174.6,42.259,1,1.0,0,1.0,0,1.0,0,1.0,0,1.0
2548,'1',6.5130943,0.93086931,14.201,-3.097,1.0485082,0,27.9,0.0,1.0,0.0,0.0,1.0,1,1.0,27.9,6.386,1,1.0,0,1.0,0,1.0,0,1.0,0,1.0
2549,'1',3.6280943,-1.4457733,14.201,-3.097,1.0515745,0,27.9,0.0,1.0,0.0,0.0,1.0,1,1.0,27.9,3.501,1,1.0,0,1.0,0,1.0,0,1.0,0,1.0
2549,'2',13.301094,-1.4457733,14.201,-3.097,1.0515745,0,27.9,0.0,1.0,0.0,0.0,1.0,1,1.0,27.9,13.174,1,1.0,0,1.0,0,1.0,0,1.0,0,1.0
2549,'3',9.6260943,-1.4457733,14.201,-3.097,1.0515745,0,27.9,0.0,1.0,0.0,0.0,1.0,1,1.0,27.9,9.499,1,1.0,0,1.0,0,1.0,0,1.0,0,1.0
2549,'4',11.648094,-1.4457733,14.201,-3.097,1.0515745,0,27.9,0.0,1.0,0.0,0.0,1.0,1,1.0,27.9,11.521,1,1.0,0,1.0,0,1.0,0,1.0,0,1.0
2549,'5',10.638094,-1.4457733,14.201,-3.097,1.0515745,0,27.9,0.0,1.0,0.0,0.0,1.0,1,1.0,27.9,10.511,1,1.0,0,1.0,0,1.0,0,1.0,0,1.0
2554,'1',47.327851,13.414916,67.137,-14.641,1.0585,0,131.9,0.0,1.0,0.0,0.0,1.0,1,1.0,131.9,46.727,1,1.0,0,1.0,0,1.0,0,1.0,0,1.0
2555,'1',65.953851,21.775138,67.137,-14.641,1.0585,0,131.9,0.0,1.0,0.0,0.0,1.0,1,1.0,131.9,65.353,1,1.0,0,1.0,0,1.0,0,1.0,0,1.0
2556,'1',28.398851,15.807941,67.137,-14.641,1.0585,0,131.9,0.0,1.0,0.0,0.0,1.0,1,1.0,131.9,27.798,1,1.0,0,1.0,0,1.0,0,1.0,0,1.0
2557,'1',33.360851,16.357209,67.137,-14.641,1.0585,0,131.9,0.0,1.0,0.0,0.0,1.0,1,1.0,131.9,32.76,1,1.0,0,1.0,0,1.0,0,1.0,0,1.0
2563,'1',548.28375,362.87843,447.12,-99.63,1.0125426,0,1215.0,0.0,1.0,0.0,0.0,1.0,1,1.0,1215.0,542.749,1,1.0,0,1.0,0,1.0,0,1.0,0,1.0
2564,'1',609.64475,365.07079,447.12,-99.63,1.0100097,0,1215.0,0.0,1.0,0.0,0.0,1.0,1,1.0,1215.0,196.854,1,1.0,0,1.0,0,1.0,0,1.0,0,1.0
2567,'1',24.950985,-5.4720301,36.648,-7.992,1.0385104,0,72.0,0.0,1.0,0.0,0.0,1.0,1,1.0,72.0,24.623,1,1.0,0,1.0,0,1.0,0,1.0,0,1.0
2567,'2',32.823985,-5.4720301,36.648,-7.992,1.0385104,0,72.0,0.0,1.0,0.0,0.0,1.0,1,1.0,72.0,32.496,1,1.0,0,1.0,0,1.0,0,1.0,0,1.0
2567,'3',8.9219852,-5.4720301,36.648,-7.992,1.0385104,0,72.0,0.0,1.0,0.0,0.0,1.0,1,1.0,72.0,8.594,1,1.0,0,1.0,0,1.0,0,1.0,0,1.0
2567,'4',21.233985,-5.4720301,36.648,-7.992,1.0385104,0,72.0,0.0,1.0,0.0,0.0,1.0,1,1.0,72.0,20.906,1,1.0,0,1.0,0,1.0,0,1.0,0,1.0
2567,'5',31.313985,-5.4720301,36.648,-7.992,1.0385104,0,72.0,0.0,1.0,0.0,0.0,1.0,1,1.0,72.0,30.986,1,1.0,0,1.0,0,1.0,0,1.0,0,1.0
2567,'6',20.870985,-5.4720301,36.648,-7.992,1.0385104,0,72.0,0.0,1.0,0.0,0.0,1.0,1,1.0,72.0,20.543,1,1.0,0,1.0,0,1.0,0,1.0,0,1.0
2573,'1',278.0,-19.669454,59.214,-40.032,1.036,0,278.0,0.0,1.0,0.0,0.0,1.0,1,1.0,278.0,124.493,1,1.0,0,1.0,0,1.0,0,1.0,0,1.0
2578,'1',150.0,-13.449171,31.95,-21.6,1.04,0,150.0,0.0,1.0,0.0,0.0,1.0,1,1.0,150.0,35.937,1,1.0,0,1.0,0,1.0,0,1.0,0,1.0
2583,'1',164.0614,59.110364,165.527,-36.097,1.0475,0,325.2,0.0,1.0,0.0,0.0,1.0,1,1.0,325.2,162.58,1,1.0,0,1.0,0,1.0,0,1.0,0,1.0
2584,'1',67.9144,76.647493,165.527,-36.097,1.0475,0,325.2,0.0,1.0,0.0,0.0,1.0,1,1.0,325.2,66.433,1,1.0,0,1.0,0,1.0,0,1.0,0,1.0
2588,'1',232.5,12.886751,49.523,-33.48,1.04,0,232.5,0.0,1.0,0.0,0.0,1.0,1,1.0,232.5,56.736,1,1.0,0,1.0,0,1.0,0,1.0,0,1.0
2591,'1',80.5,-8.8317319,17.146,-11.592,1.0430462,0,80.5,0.0,1.0,0.0,0.0,1.0,1,1.0,80.5,25.199,1,1.0,0,1.0,0,1.0,0,1.0,0,1.0
2594,'1',79.6,6.5865607,16.955,-11.462,1.0478377,0,79.6,0.0,1.0,0.0,0.0,1.0,1,1.0,79.6,29.942,1,1.0,0,1.0,0,1.0,0,1.0,0,1.0
2598,'1',6.7902458,-0.71515886,10.307,-2.248,1.0499635,0,20.25,0.0,1.0,0.0,0.0,1.0,1,1.0,20.25,6.698,1,1.0,0,1.0,0,1.0,0,1.0,0,1.0
2598,'2',4.2552458,-0.71515886,10.307,-2.248,1.0499635,0,20.25,0.0,1.0,0.0,0.0,1.0,1,1.0,20.25,4.163,1,1.0,0,1.0,0,1.0,0,1.0,0,1.0
2604,'1',200.0,42.6,42.6,-28.8,1.048,0,200.0,0.0,1.0,0.0,0.0,1.0,1,1.0,200.0,75.326,1,1.0,0,1.0,0,1.0,0,1.0,0,1.0
2611,'1',113.61179,45.396001,199.426,-43.49,1.0045,0,391.8,0.0,1.0,0.0,0.0,1.0,1,1.0,391.8,111.827,1,1.0,0,1.0,0,1.0,0,1.0,0,1.0
2612,'1',190.72979,65.143702,199.426,-43.49,1.0045,0,391.8,0.0,1.0,0.0,0.0,1.0,1,1.0,391.8,188.945,1,1.0,0,1.0,0,1.0,0,1.0,0,1.0
2613,'1',103.01979,51.911992,199.426,-43.49,1.0045,0,391.8,0.0,1.0,0.0,0.0,1.0,1,1.0,391.8,101.235,1,1.0,0,1.0,0,1.0,0,1.0,0,1.0
2617,'1',22.0,-0.86873648,8.448,-1.078,1.0518512,0,22.0,0.0,1.0,0.0,0.0,1.0,1,1.0,22.0,2.376,1,1.0,0,1.0,0,1.0,0,1.0,0,1.0
2617,'2',22.0,-0.86873648,8.448,-1.078,1.0518512,0,22.0,0.0,1.0,0.0,0.0,1.0,1,1.0,22.0,6.487,1,1.0,0,1.0,0,1.0,0,1.0,0,1.0
2623,'1',230.70253,-22.043786,307.56,-80.52,1.04,0,660.0,0.0,1.0,0.0,0.0,1.0,1,1.0,660.0,227.696,1,1.0,0,1.0,0,1.0,0,1.0,0,1.0
2624,'1',116.59953,-36.371458,307.56,-80.52,1.04,0,660.0,0.0,1.0,0.0,0.0,1.0,1,1.0,660.0,113.593,1,1.0,0,1.0,0,1.0,0,1.0,0,1.0
2625,'1',186.853,-30.439,307.56,-80.52,1.0422234,0,660.0,0.0,1.0,0.0,0.0,1.0,0,1.0,660.0,177.006,1,1.0,0,1.0,0,1.0,0,1.0,0,1.0
2630,'1',288.6,-18.602999,61.472,-41.558,1.0405,0,288.6,0.0,1.0,0.0,0.0,1.0,1,1.0,288.6,123.187,1,1.0,0,1.0,0,1.0,0,1.0,0,1.0
2635,'1',241.0,51.333,51.333,-34.704,1.058,0,241.0,0.0,1.0,0.0,0.0,1.0,1,1.0,241.0,92.743,1,1.0,0,1.0,0,1.0,0,1.0,0,1.0
2638,'1',58.8,-8.467,12.524,-8.467,1.0466143,0,58.8,0.0,1.0,0.0,0.0,1.0,1,1.0,58.8,7.225,1,1.0,0,1.0,0,1.0,0,1.0,0,1.0
2644,'1',165.625,35.003656,35.278,-23.85,1.0089515,0,165.63,0.0,1.0,0.0,0.0,1.0,1,1.0,165.625,23.039,1,1.0,0,1.0,0,1.0,0,1.0,0,1.0
2645,'1',165.625,35.278,35.278,-23.85,1.0059089,0,165.63,0.0,1.0,0.0,0.0,1.0,1,1.0,165.625,58.765,1,1.0,0,1.0,0,1.0,0,1.0,0,1.0
2646,'1',165.625,35.278,35.278,-23.85,1.0053715,0,165.63,0.0,1.0,0.0,0.0,1.0,1,1.0,165.625,44.736,1,1.0,0,1.0,0,1.0,0,1.0,0,1.0
2647,'1',165.625,-9.8709402,35.278,-23.85,1.04,0,165.63,0.0,1.0,0.0,0.0,1.0,1,1.0,165.625,19.005,1,1.0,0,1.0,0,1.0,0,1.0,0,1.0
2651,'1',39.138793,-12.612607,80.541,-17.564,1.0405,0,158.23,0.0,1.0,0.0,0.0,1.0,1,1.0,158.233,38.418,1,1.0,0,1.0,0,1.0,0,1.0,0,1.0
2652,'1',67.461793,-16.016338,80.541,-17.564,1.0430665,0,158.23,0.0,1.0,0.0,0.0,1.0,1,1.0,158.233,66.741,1,1.0,0,1.0,0,1.0,0,1.0,0,1.0
2653,'1',25.317793,-11.62157,80.541,-17.564,1.0405,0,158.23,0.0,1.0,0.0,0.0,1.0,1,1.0,158.233,24.597,1,1.0,0,1.0,0,1.0,0,1.0,0,1.0
2657,'1',126.5,-15.65664,26.945,-18.216,1.0285845,0,126.5,0.0,1.0,0.0,0.0,1.0,1,1.0,126.5,50.669,1,1.0,0,1.0,0,1.0,0,1.0,0,1.0
2662,'1',197.0,1.0309434,41.961,-28.368,1.0405,0,197.0,0.0,1.0,0.0,0.0,1.0,1,1.0,197.0,96.368,1,1.0,0,1.0,0,1.0,0,1.0,0,1.0
2665,'1',78.2,-11.261,16.657,-11.261,1.0601634,0,78.2,0.0,1.0,0.0,0.0,1.0,1,1.0,78.2,27.384,1,1.0,0,1.0,0,1.0,0,1.0,0,1.0
2669,'1',86.987137,18.463548,93.537,-20.398,1.0585,0,183.77,0.0,1.0,0.0,0.0,1.0,1,1.0,183.767,86.15,1,1.0,0,1.0,0,1.0,0,1.0,0,1.0
2670,'1',72.923137,36.79442,93.537,-20.398,1.0585,0,183.77,0.0,1.0,0.0,0.0,1.0,1,1.0,183.767,72.086,1,1.0,0,1.0,0,1.0,0,1.0,0,1.0
2671,'1',22.053137,23.89369,93.537,-20.398,1.0585,0,183.77,0.0,1.0,0.0,0.0,1.0,1,1.0,183.767,21.216,1,1.0,0,1.0,0,1.0,0,1.0,0,1.0
2677,'1',30.627798,33.642669,94.844,-20.683,1.0525,0,186.33,0.0,1.0,0.0,0.0,1.0,1,1.0,186.333,29.779,1,1.0,0,1.0,0,1.0,0,1.0,0,1.0
2678,'1',89.129798,43.68805,94.844,-20.683,1.0525,0,186.33,0.0,1.0,0.0,0.0,1.0,1,1.0,186.333,88.281,1,1.0,0,1.0,0,1.0,0,1.0,0,1.0
2679,'1',70.272798,48.500529,94.844,-20.683,1.0525,0,186.33,0.0,1.0,0.0,0.0,1.0,1,1.0,186.333,69.424,1,1.0,0,1.0,0,1.0,0,1.0,0,1.0
2683,'1',283.2,-40.781,60.322,-40.781,1.032386,0,283.2,0.0,1.0,0.0,0.0,1.0,1,1.0,283.2,79.964,1,1.0,0,1.0,0,1.0,0,1.0,0,1.0
2688,'1',203.0,28.964421,43.239,-29.232,1.0045,0,203.0,0.0,1.0,0.0,0.0,1.0,1,1.0,203.0,98.9,1,1.0,0,1.0,0,1.0,0,1.0,0,1.0
2691,'1',5.19688,5.6072358,21.887,-4.773,1.0385,0,43.0,0.0,1.0,0.0,0.0,1.0,1,1.0,43.0,5.001,1,1.0,0,1.0,0,1.0,0,1.0,0,1.0
2692,'1',21.67788,-4.773,21.887,-4.773,1.0423062,0,43.0,0.0,1.0,0.0,0.0,1.0,1,1.0,43.0,21.482,1,1.0,0,1.0,0,1.0,0,1.0,0,1.0
...
0 / END OF GENERATOR DATA BEGIN BRANCH DATA
1,10,'1',0.0087,0.04508,0.03012,161.0,161.0,161.0,0.0,0.0,0.0,0.0,1,1,0.0,1,1.0,0,1.0,0,1.0,0,1.0
2,5,'1',0.04168,0.15499,0.06378,172.6,172.6,172.6,0.0,0.0,0.0,0.0,1,1,0.0,1,1.0,0,1.0,0,1.0,0,1.0
2,2971,'1',0.0113,0.0609,0.01935,179.1,179.1,179.1,0.0,0.0,0.0,0.0,1,1,0.0,1,1.0,0,1.0,0,1.0,0,1.0
3,32,'1',0.02285,0.1258,0.02312,129.8,129.8,129.8,0.0,0.0,0.0,0.0,1,1,0.0,1,1.0,0,1.0,0,1.0,0,1.0
4,5,'1',0.00021,0.0011,0.0,99999.0,99999.0,99999.0,0.0,0.0,0.0,0.0,1,1,0.0,1,1.0,0,1.0,0,1.0,0,1.0
5,47,'1',0.01779,0.09175,0.1489,168.8,168.8,168.8,0.0,0.0,0.0,0.0,1,1,0.0,1,1.0,0,1.0,0,1.0,0,1.0
6,7,'1',0.01146,0.06161,0.01521,118.9,118.9,118.9,0.0,0.0,0.0,0.0,1,1,0.0,1,1.0,0,1.0,0,1.0,0,1.0
6,3839,'1',0.06146,0.23913,0.02814,132.4,132.4,132.4,0.0,0.0,0.0,0.0,1,1,0.0,1,1.0,0,1.0,0,1.0,0,1.0
7,3142,'1',0.01943,0.08611,0.03098,154.4,154.4,154.4,0.0,0.0,0.0,0.0,1,1,0.0,1,1.0,0,1.0,0,1.0,0,1.0
8,9,'1',0.04045,0.19503,0.02577,143.7,143.7,143.7,0.0,0.0,0.0,0.0,1,1,0.0,1,1.0,0,1.0,0,1.0,0,1.0
8,34,'1',0.03445,0.15102,0.02567,125.9,125.9,125.9,0.0,0.0,0.0,0.0,1,1,0.0,1,1.0,0,1.0,0,1.0,0,1.0
8,2798,'1',0.03757,0.171,0.015,165.0,165.0,165.0,0.0,0.0,0.0,0.0,1,1,0.0,1,1.0,0,1.0,0,1.0,0,1.0
10,11,'1',0.03459,0.13093,0.02825,179.5,179.5,179.5,0.0,0.0,0.0,0.0,1,1,0.0,1,1.0,0,1.0,0,1.0,0,1.0
12,14,'1',0.00024,0.00103,0.0,99999.0,99999.0,99999.0,0.0,0.0,0.0,0.0,1,1,0.0,1,1.0,0,1.0,0,1.0,0,1.0
12,15,'1',0.00028,0.00118,0.0,99999.0,99999.0,99999.0,0.0,0.0,0.0,0.0,1,1,0.0,1,1.0,0,1.0,0,1.0,0,1.0
13,11,'1',0.0115,0.05155,0.00995,186.6,186.6,186.6,0.0,0.0,0.0,0.0,1,1,0.0,1,1.0,0,1.0,0,1.0,0,1.0
13,25,'1',0.03053,0.12823,0.03996,170.2,170.2,170.2,0.0,0.0,0.0,0.0,1,1,0.0,1,1.0,0,1.0,0,1.0,0,1.0
15,2405,'1',0.00382,0.03136,0.07527,564.4,564.4,564.4,0.0,0.0,0.0,0.0,1,1,0.0,1,1.0,0,1.0,0,1.0,0,1.0
15,3118,'1',0.00577,0.05823,0.28363,602.8,602.8,602.8,0.0,0.0,0.0,0.0,1,1,0.0,1,1.0,0,1.0,0,1.0,0,1.0
16,18,'1',0.00029,0.00105,0.0,99999.0,99999.0,99999.0,0.0,0.0,0.0,0.0,1,1,0.0,1,1.0,0,1.0,0,1.0,0,1.0
16,19,'1',0.00021,0.00106,0.0,99999.0,99999.0,99999.0,0.0,0.0,0.0,0.0,1,1,0.0,1,1.0,0,1.0,0,1.0,0,1.0
17,70,'1',0.02482,0.12658,0.04798,148.2,148.2,148.2,0.0,0.0,0.0,0.0,1,1,0.0,1,1.0,0,1.0,0,1.0,0,1.0
19,3259,'1',0.01233,0.10016,0.25445,532.2,532.2,532.2,0.0,0.0,0.0,0.0,1,1,0.0,1,1.0,0,1.0,0,1.0,0,1.0
20,22,'1',0.00021,0.00114,0.0,99999.0,99999.0,99999.0,0.0,0.0,0.0,0.0,1,1,0.0,1,1.0,0,1.0,0,1.0,0,1.0
20,23,'1',0.00028,0.00106,0.0,99999.0,99999.0,99999.0,0.0,0.0,0.0,0.0,1,1,0.0,1,1.0,0,1.0,0,1.0,0,1.0
21,9,'1',0.0449,0.16501,0.01666,108.5,108.5,108.5,0.0,0.0,0.0,0.0,1,1,0.0,1,1.0,0,1.0,0,1.0,0,1.0
22,3615,'1',0.00793,0.06747,0.23868,597.9,597.9,597.9,0.0,0.0,0.0,0.0,1,1,0.0,1,1.0,0,1.0,0,1.0,0,1.0
24,32,'1',0.01064,0.03316,0.00869,147.4,147.4,147.4,0.0,0.0,0.0,0.0,1,1,0.0,1,1.0,0,1.0,0,1.0,0,1.0
25,24,'1',0.00921,0.03545,0.00947,146.1,146.1,146.1,0.0,0.0,0.0,0.0,1,1,0.0,1,1.0,0,1.0,0,1.0,0,1.0
25,43,'1',0.00594,0.0302,0.03786,175.1,175.1,175.1,0.0,0.0,0.0,0.0,1,1,0.0,1,1.0,0,1.0,0,1.0,0,1.0
26,2572,'1',0.0208,0.09668,0.02411,135.6,135.6,135.6,0.0,0.0,0.0,0.0,1,1,0.0,1,1.0,0,1.0,0,1.0,0,1.0
26,3467,'1',0.05134,0.25172,0.03633,160.0,160.0,160.0,0.0,0.0,0.0,0.0,1,1,0.0,1,1.0,0,1.0,0,1.0,0,1.0
27,30,'1',0.00029,0.00101,0.0,99999.0,99999.0,99999.0,0.0,0.0,0.0,0.0,1,1,0.0,1,1.0,0,1.0,0,1.0,0,1.0
27,2585,'1',0.00049,0.00859,1.20744,2730.0,2730.0,2730.0,0.0,0.0,0.0,0.0,1,1,0.0,1,1.0,0,1.0,0,1.0,0,1.0
27,3124,'1',0.001,0.01944,2.12114,2885.3,2885.3,2885.3,0.0,0.0,0.0,0.0,1,1,0.0,1,1.0,0,1.0,0,1.0,0,1.0
28,31,'1',0.0003,0.00103,0.0,99999.0,99999.0,99999.0,0.0,0.0,0.0,0.0,1,1,0.0,1,1.0,0,1.0,0,1.0,0,1.0
29,3557,'1',0.00452,0.02384,0.01438,170.8,170.8,170.8,0.0,0.0,0.0,0.0,1,1,0.0,1,1.0,0,1.0,0,1.0,0,1.0
31,65,'1',0.00329,0.03121,0.15293,513.4,513.4,513.4,0.0,0.0,0.0,0.0,1,1,0.0,1,1.0,0,1.0,0,1.0,0,1.0
31,2574,'1',0.00652,0.0629,0.18163,513.0,513.0,513.0,0.0,0.0,0.0,0.0,1,1,0.0,1,1.0,0,1.0,0,1.0,0,1.0
31,3567,'1',0.00127,0.01143,0.03245,651.5,651.5,651.5,0.0,0.0,0.0,0.0,1,1,0.0,1,1.0,0,1.0,0,1.0,0,1.0
31,3567,'2',0.00127,0.01143,0.03245,651.5,651.5,651.5,0.0,0.0,0.0,0.0,1,1,0.0,1,1.0,0,1.0,0,1.0,0,1.0
32,33,'1',0.00021,0.00116,0.0,99999.0,99999.0,99999.0,0.0,0.0,0.0,0.0,1,1,0.0,1,1.0,0,1.0,0,1.0,0,1.0
32,2282,'1',0.00716,0.03527,0.01736,178.4,178.4,178.4,0.0,0.0,0.0,0.0,1,1,0.0,1,1.0,0,1.0,0,1.0,0,1.0
34,56,'1',0.03264,0.16102,0.02997,134.9,134.9,134.9,0.0,0.0,0.0,0.0,1,1,0.0,1,1.0,0,1.0,0,1.0,0,1.0
35,36,'1',0.00024,0.00114,0.0,99999.0,99999.0,99999.0,0.0,0.0,0.0,0.0,1,1,0.0,1,1.0,0,1.0,0,1.0,0,1.0
35,62,'1',0.01883,0.10742,0.02725,115.3,115.3,115.3,0.0,0.0,0.0,0.0,1,1,0.0,1,1.0,0,1.0,0,1.0,0,1.0
37,39,'1',0.00025,0.00118,0.0,99999.0,99999.0,99999.0,0.0,0.0,0.0,0.0,1,1,0.0,1,1.0,0,1.0,0,1.0,0,1.0
37,2975,'1',0.00926,0.08957,0.19243,584.8,584.8,584.8,0.0,0.0,0.0,0.0,1,1,0.0,1,1.0,0,1.0,0,1.0,0,1.0
38,35,'1',0.01179,0.04912,0.01005,139.0,139.0,139.0,0.0,0.0,0.0,0.0,1,1,0.0,1,1.0,0,1.0,0,1.0,0,1.0
40,54,'1',0.00717,0.03214,0.01168,183.9,183.9,183.9,0.0,0.0,0.0,0.0,1,1,0.0,1,1.0,0,1.0,0,1.0,0,1.0
41,24,'1',0.00554,0.0269,0.01549,152.7,152.7,152.7,0.0,0.0,0.0,0.0,1,1,0.0,1,1.0,0,1.0,0,1.0,0,1.0
42,40,'1',0.00522,0.01499,0.00686,198.7,198.7,198.7,0.0,0.0,0.0,0.0,1,1,0.0,1,1.0,0,1.0,0,1.0,0,1.0
42,2282,'1',0.01068,0.05861,0.01552,200.1,200.1,200.1,0.0,0.0,0.0,0.0,1,1,0.0,1,1.0,0,1.0,0,1.0,0,1.0
43,41,'1',0.00246,0.01272,0.00586,168.0,168.0,168.0,0.0,0.0,0.0,0.0,1,1,0.0,1,1.0,0,1.0,0,1.0,0,1.0
43,3557,'1',0.00614,0.03023,0.00712,164.6,164.6,164.6,0.0,0.0,0.0,0.0,1,1,0.0,1,1.0,0,1.0,0,1.0,0,1.0
44,29,'1',0.00738,0.02468,0.00717,123.9,123.9,123.9,0.0,0.0,0.0,0.0,1,1,0.0,1,1.0,0,1.0,0,1.0,0,1.0
44,45,'1',0.0055,0.0265,0.0033,145.5,145.5,145.5,0.0,0.0,0.0,0.0,1,1,0.0,1,1.0,0,1.0,0,1.0,0,1.0
45,2282,'1',0.0079,0.04148,0.00396,162.4,162.4,162.4,0.0,0.0,0.0,0.0,1,1,0.0,1,1.0,0,1.0,0,1.0,0,1.0
46,38,'1',0.02563,0.14224,0.01306,169.3,169.3,169.3,0.0,0.0,0.0,0.0,1,1,0.0,1,1.0,0,1.0,0,1.0,0,1.0
48,47,'1',0.00865,0.03468,0.02152,166.3,166.3,166.3,0.0,0.0,0.0,0.0,1,1,0.0,1,1.0,0,1.0,0,1.0,0,1.0
48,71,'1',0.03201,0.12189,0.05261,176.6,176.6,176.6,0.0,0.0,0.0,0.0,1,1,0.0,1,1.0,0,1.0,0,1.0,0,1.0
49,50,'1',0.00022,0.00108,0.0,99999.0,99999.0,99999.0,0.0,0.0,0.0,0.0,1,1,0.0,1,1.0,0,1.0,0,1.0,0,1.0
50,86,'1',0.0328,0.16516,0.09333,116.2,116.2,116.2,0.0,0.0,0.0,0.0,1,1,0.0,1,1.0,0,1.0,0,1.0,0,1.0
51,59,'1',0.01464,0.04673,0.00744,114.8,114.8,114.8,0.0,0.0,0.0,0.0,1,1,0.0,1,1.0,0,1.0,0,1.0,0,1.0
52,53,'1',0.00021,0.00103,0.0,99999.0,99999.0,99999.0,0.0,0.0,0.0,0.0,1,1,0.0,1,1.0,0,1.0,0,1.0,0,1.0
53,54,'1',0.00707,0.03381,0.01158,147.3,147.3,147.3,0.0,0.0,0.0,0.0,1,1,0.0,1,1.0,0,1.0,0,1.0,0,1.0
53,59,'1',0.00623,0.0242,0.00374,121.3,121.3,121.3,0.0,0.0,0.0,0.0,1,1,0.0,1,1.0,0,1.0,0,1.0,0,1.0
54,51,'1',0.01384,0.04606,0.00524,145.7,145.7,145.7,0.0,0.0,0.0,0.0,1,1,0.0,1,1.0,0,1.0,0,1.0,0,1.0
54,55,'1',0.00027,0.00106,0.0,99999.0,99999.0,99999.0,0.0,0.0,0.0,0.0,1,1,0.0,1,1.0,0,1.0,0,1.0,0,1.0
56,46,'1',0.04103,0.16139,0.02102,159.3,159.3,159.3,0.0,0.0,0.0,0.0,1,1,0.0,1,1.0,0,1.0,0,1.0,0,1.0
56,57,'1',0.00022,0.00118,0.0,99999.0,99999.0,99999.0,0.0,0.0,0.0,0.0,1,1,0.0,1,1.0,0,1.0,0,1.0,0,1.0
56,96,'1',0.01994,0.09722,0.00985,136.4,136.4,136.4,0.0,0.0,0.0,0.0,1,1,0.0,1,1.0,0,1.0,0,1.0,0,1.0
58,64,'1',0.015,0.07401,0.00725,134.0,134.0,134.0,0.0,0.0,0.0,0.0,1,1,0.0,1,1.0,0,1.0,0,1.0,0,1.0
59,58,'1',0.00557,0.02601,0.00571,109.3,109.3,109.3,0.0,0.0,0.0,0.0,1,1,0.0,1,1.0,0,1.0,0,1.0,0,1.0
60,61,'1',0.0002,0.00106,0.0,99999.0,99999.0,99999.0,0.0,0.0,0.0,0.0,1,1,0.0,1,1.0,0,1.0,0,1.0,0,1.0
60,67,'1',0.00441,0.02151,0.01126,144.1,144.1,144.1,0.0,0.0,0.0,0.0,1,1,0.0,1,1.0,0,1.0,0,1.0,0,1.0
60,77,'1',0.00675,0.04224,0.01573,169.1,169.1,169.1,0.0,0.0,0.0,0.0,1,1,0.0,1,1.0,0,1.0,0,1.0,0,1.0
62,47,'1',0.0085,0.05417,0.06179,188.6,188.6,188.6,0.0,0.0,0.0,0.0,1,1,0.0,1,1.0,0,1.0,0,1.0,0,1.0
62,85,'1',0.01218,0.06348,0.01115,166.7,166.7,166.7,0.0,0.0,0.0,0.0,1,1,0.0,1,1.0,0,1.0,0,1.0,0,1.0
63,65,'1',0.0003,0.00111,0.0,99999.0,99999.0,99999.0,0.0,0.0,0.0,0.0,1,1,0.0,1,1.0,0,1.0,0,1.0,0,1.0
63,66,'1',0.0003,0.00116,0.0,99999.0,99999.0,99999.0,0.0,0.0,0.0,0.0,1,1,0.0,1,1.0,0,1.0,0,1.0,0,1.0
64,53,'1',0.00517,0.02427,0.00753,154.1,154.1,154.1,0.0,0.0,0.0,0.0,1,1,0.0,1,1.0,0,1.0,0,1.0,0,1.0
64,59,'1',0.00458,0.0236,0.00997,156.3,156.3,156.3,0.0,0.0,0.0,0.0,1,1,0.0,1,1.0,0,1.0,0,1.0,0,1.0
64,67,'1',0.00668,0.0258,0.00494,138.5,138.5,138.5,0.0,0.0,0.0,0.0,1,1,0.0,1,1.0,0,1.0,0,1.0,0,1.0
68,69,'1',0.00026,0.00104,0.0,99999.0,99999.0,99999.0,0.0,0.0,0.0,0.0,1,1,0.0,1,1.0,0,1.0,0,1.0,0,1.0
68,3394,'1',0.00964,0.03811,0.00673,120.4,120.4,120.4,0.0,0.0,0.0,0.0,1,1,0.0,1,1.0,0,1.0,0,1.0,0,1.0
70,68,'1',0.00842,0.04011,0.02742,161.6,161.6,161.6,0.0,0.0,0.0,0.0,1,1,0.0,1,1.0,0,1.0,0,1.0,0,1.0
70,2713,'1',0.01477,0.0596,0.01854,162.4,162.4,162.4,0.0,0.0,0.0,0.0,1,1,0.0,1,1.0,0,1.0,0,1.0,0,1.0
72,74,'1',0.00023,0.00109,0.0,99999.0,99999.0,99999.0,0.0,0.0,0.0,0.0,1,1,0.0,1,1.0,0,1.0,0,1.0,0,1.0
72,75,'1',0.00027,0.00118,0.0,99999.0,99999.0,99999.0,0.0,0.0,0.0,0.0,1,1,0.0,1,1.0,0,1.0,0,1.0,0,1.0
73,71,'1',0.0162,0.0528,0.0087,182.0,182.0,182.0,0.0,0.0,0.0,0.0,1,1,0.0,1,1.0,0,1.0,0,1.0,0,1.0
75,3713,'1',0.00519,0.04788,0.20757,615.4,615.4,615.4,0.0,0.0,0.0,0.0,1,1,0.0,1,1.0,0,1.0,0,1.0,0,1.0
76,58,'1',0.01303,0.04777,0.02234,147.7,147.7,147.7,0.0,0.0,0.0,0.0,1,1,0.0,1,1.0,0,1.0,0,1.0,0,1.0
76,77,'1',0.01118,0.05743,0.0095,160.5,160.5,160.5,0.0,0.0,0.0,0.0,1,1,0.0,1,1.0,0,1.0,0,1.0,0,1.0
77,2282,'1',0.01741,0.07702,0.0321,199.3,199.3,199.3,0.0,0.0,0.0,0.0,1,1,0.0,1,1.0,0,1.0,0,1.0,0,1.0
...